 ****** HSPICE -- Q-2020.03-SP2-2 linux64 (Nov  1 2020) ******                  
  Copyright (c) 1986 - 2025 by Synopsys, Inc. All Rights Reserved.              
  This software and the associated documentation are proprietary
  to Synopsys, Inc. This software may only be used in accordance
  with the terms and conditions of a written license agreement with
  Synopsys, Inc. All other use, reproduction, or distribution of
  this software is strictly prohibited.
  Input File: ex1_1.sp                                                          
  Command line options: /RAID2/cad/synopsys/hspice/2020.03-sp2-2/hspice/linux64/hspice -i ex1_1.sp -o ex1_1.lis
  Start time: Tue Mar 18 22:05:11 2025
 lic:  
 lic: FLEXlm: SDK_12.6 
 lic: USER:   es25MCS042           HOSTNAME: ee28 
 lic: HOSTID: "d85ed3efc19a"       PID:      244168 
 lic: Using FLEXlm license file: 
 lic: 26585@lshc 
 lic: Checkout 1 hspice 
 lic: License/Maintenance for hspice will expire on 14-may-2025/2024.09 
 lic: 257(in_use)/1100(total) FLOATING license(s) on SERVER 26585@lshc 
 lic:   
  
      
             
 Warning:'Floating bulk' occurs 1 times
 Summary of floating bulk:
 -----------------------
 |Node      |Device    |
 |----------+----------|
 |x         |mn_ax1    |
 -----------------------
              
 *****************************************************************
 ******  option summary
 ******
 runlvl  = 3         bypass  = 2.0000    
 convergence problems in dc sweep curves at  0.25949    
  resimulating with dc convergence controls

 convergence problem in dc sweep curve at 0.25949    
 pseudo tran is tried

  *** pseudo tran succeeded *** 
 ******
 .title ex1_1

 ****** dc transfer curves tnom=  25.000 temp=  25.000 ******
x

 volt         voltage    voltage   
             q          qb         
 -707.10678m  699.9999m   31.6186n 
 -707.00678m  699.9999m   31.6186n 
 -706.90678m  699.9999m   31.6186n 
 -706.80678m  699.9999m   31.6186n 
 -706.70678m  699.9999m   31.6186n 
 -706.60678m  699.9999m   31.6186n 
 -706.50678m  699.9999m   31.6186n 
 -706.40678m  699.9999m   31.6186n 
 -706.30678m  699.9999m   31.6186n 
 -706.20678m  699.9999m   31.6186n 
 -706.10678m  699.9999m   31.6186n 
 -706.00678m  699.9999m   31.6186n 
 -705.90678m  699.9999m   31.6186n 
 -705.80678m  699.9999m   31.6186n 
 -705.70678m  699.9999m   31.6186n 
 -705.60678m  699.9999m   31.6186n 
 -705.50678m  699.9999m   31.6186n 
 -705.40678m  699.9999m   31.6186n 
 -705.30678m  699.9999m   31.6186n 
 -705.20678m  699.9999m   31.6186n 
 -705.10678m  699.9999m   31.6186n 
 -705.00678m  699.9999m   31.6186n 
 -704.90678m  699.9999m   31.6186n 
 -704.80678m  699.9999m   31.6186n 
 -704.70678m  699.9999m   31.6186n 
 -704.60678m  699.9999m   31.6186n 
 -704.50678m  699.9999m   31.6186n 
 -704.40678m  699.9999m   31.6186n 
 -704.30678m  699.9999m   31.6186n 
 -704.20678m  699.9999m   31.6186n 
 -704.10678m  699.9999m   31.6186n 
 -704.00678m  699.9999m   31.6186n 
 -703.90678m  699.9999m   31.6186n 
 -703.80678m  699.9999m   31.6186n 
 -703.70678m  699.9999m   31.6186n 
 -703.60678m  699.9999m   31.6186n 
 -703.50678m  699.9999m   31.6186n 
 -703.40678m  699.9999m   31.6186n 
 -703.30678m  699.9999m   31.6186n 
 -703.20678m  699.9999m   31.6186n 
 -703.10678m  699.9999m   31.6186n 
 -703.00678m  699.9999m   31.6186n 
 -702.90678m  699.9999m   31.6186n 
 -702.80678m  699.9999m   31.6186n 
 -702.70678m  699.9999m   31.6186n 
 -702.60678m  699.9999m   31.6186n 
 -702.50678m  699.9999m   31.6186n 
 -702.40678m  699.9999m   31.6186n 
 -702.30678m  699.9999m   31.6186n 
 -702.20678m  699.9999m   31.6186n 
 -702.10678m  699.9999m   31.6186n 
 -702.00678m  699.9999m   31.6186n 
 -701.90678m  699.9999m   31.6186n 
 -701.80678m  699.9999m   31.6186n 
 -701.70678m  699.9999m   31.6186n 
 -701.60678m  699.9999m   31.6186n 
 -701.50678m  699.9999m   31.6186n 
 -701.40678m  699.9999m   31.6186n 
 -701.30678m  699.9999m   31.6186n 
 -701.20678m  699.9999m   31.6186n 
 -701.10678m  699.9999m   31.6186n 
 -701.00678m  699.9999m   31.6186n 
 -700.90678m  699.9999m   31.6186n 
 -700.80678m  699.9999m   31.6186n 
 -700.70678m  699.9999m   31.6186n 
 -700.60678m  699.9999m   31.6186n 
 -700.50678m  699.9999m   31.6186n 
 -700.40678m  699.9999m   31.6186n 
 -700.30678m  699.9999m   31.6186n 
 -700.20678m  699.9999m   31.6186n 
 -700.10678m  699.9999m   31.6186n 
 -700.00678m  699.9999m   31.6186n 
 -699.90678m  699.9999m   31.6186n 
 -699.80678m  699.9999m   31.6186n 
 -699.70678m  699.9999m   31.6186n 
 -699.60678m  699.9999m   31.6186n 
 -699.50678m  699.9999m   31.6186n 
 -699.40678m  699.9999m   31.6186n 
 -699.30678m  699.9999m   31.6186n 
 -699.20678m  699.9999m   31.6186n 
 -699.10678m  699.9999m   31.6186n 
 -699.00678m  699.9999m   31.6186n 
 -698.90678m  699.9999m   31.6186n 
 -698.80678m  699.9999m   31.6186n 
 -698.70678m  699.9999m   31.6186n 
 -698.60678m  699.9999m   31.6186n 
 -698.50678m  699.9999m   31.6186n 
 -698.40678m  699.9999m   31.6186n 
 -698.30678m  699.9999m   31.6186n 
 -698.20678m  699.9999m   31.6186n 
 -698.10678m  699.9999m   31.6186n 
 -698.00678m  699.9999m   31.6186n 
 -697.90678m  699.9999m   31.6186n 
 -697.80678m  699.9999m   31.6186n 
 -697.70678m  699.9999m   31.6186n 
 -697.60678m  699.9999m   31.6186n 
 -697.50678m  699.9999m   31.6186n 
 -697.40678m  699.9999m   31.6186n 
 -697.30678m  699.9999m   31.6186n 
 -697.20678m  699.9999m   31.6186n 
 -697.10678m  699.9999m   31.6186n 
 -697.00678m  699.9999m   31.6186n 
 -696.90678m  699.9999m   31.6186n 
 -696.80678m  699.9999m   31.6186n 
 -696.70678m  699.9999m   31.6186n 
 -696.60678m  699.9999m   31.6186n 
 -696.50678m  699.9999m   31.6186n 
 -696.40678m  699.9999m   31.6186n 
 -696.30678m  699.9999m   31.6186n 
 -696.20678m  699.9999m   31.6186n 
 -696.10678m  699.9999m   31.6186n 
 -696.00678m  699.9999m   31.6186n 
 -695.90678m  699.9999m   31.6186n 
 -695.80678m  699.9999m   31.6186n 
 -695.70678m  699.9999m   31.6186n 
 -695.60678m  699.9999m   31.6186n 
 -695.50678m  699.9999m   31.6186n 
 -695.40678m  699.9999m   31.6186n 
 -695.30678m  699.9999m   31.6186n 
 -695.20678m  699.9999m   31.6186n 
 -695.10678m  699.9999m   31.6186n 
 -695.00678m  699.9999m   31.6186n 
 -694.90678m  699.9999m   31.6186n 
 -694.80678m  699.9999m   31.6186n 
 -694.70678m  699.9999m   31.6186n 
 -694.60678m  699.9999m   31.6186n 
 -694.50678m  699.9999m   31.6186n 
 -694.40678m  699.9999m   31.6186n 
 -694.30678m  699.9999m   31.6186n 
 -694.20678m  699.9999m   31.6186n 
 -694.10678m  699.9999m   31.6186n 
 -694.00678m  699.9999m   31.6186n 
 -693.90678m  699.9999m   31.6186n 
 -693.80678m  699.9999m   31.6186n 
 -693.70678m  699.9999m   31.6186n 
 -693.60678m  699.9999m   31.6186n 
 -693.50678m  699.9999m   31.6186n 
 -693.40678m  699.9999m   31.6186n 
 -693.30678m  699.9999m   31.6186n 
 -693.20678m  699.9999m   31.6186n 
 -693.10678m  699.9999m   31.6186n 
 -693.00678m  699.9999m   31.6186n 
 -692.90678m  699.9999m   31.6186n 
 -692.80678m  699.9999m   31.6186n 
 -692.70678m  699.9999m   31.6186n 
 -692.60678m  699.9999m   31.6186n 
 -692.50678m  699.9999m   31.6186n 
 -692.40678m  699.9999m   31.6186n 
 -692.30678m  699.9999m   31.6186n 
 -692.20678m  699.9999m   31.6186n 
 -692.10678m  699.9999m   31.6186n 
 -692.00678m  699.9999m   31.6186n 
 -691.90678m  699.9999m   31.6186n 
 -691.80678m  699.9999m   31.6186n 
 -691.70678m  699.9999m   31.6186n 
 -691.60678m  699.9999m   31.6186n 
 -691.50678m  699.9999m   31.6186n 
 -691.40678m  699.9999m   31.6186n 
 -691.30678m  699.9999m   31.6186n 
 -691.20678m  699.9999m   31.6186n 
 -691.10678m  699.9999m   31.6186n 
 -691.00678m  699.9999m   31.6186n 
 -690.90678m  699.9999m   31.6186n 
 -690.80678m  699.9999m   31.6186n 
 -690.70678m  699.9999m   31.6186n 
 -690.60678m  699.9999m   31.6186n 
 -690.50678m  699.9999m   31.6186n 
 -690.40678m  699.9999m   31.6186n 
 -690.30678m  699.9999m   31.6186n 
 -690.20678m  699.9999m   31.6186n 
 -690.10678m  699.9999m   31.6186n 
 -690.00678m  699.9999m   31.6186n 
 -689.90678m  699.9999m   31.6186n 
 -689.80678m  699.9999m   31.6186n 
 -689.70678m  699.9999m   31.6186n 
 -689.60678m  699.9999m   31.6186n 
 -689.50678m  699.9999m   31.6186n 
 -689.40678m  699.9999m   31.6186n 
 -689.30678m  699.9999m   31.6186n 
 -689.20678m  699.9999m   31.6186n 
 -689.10678m  699.9999m   31.6186n 
 -689.00678m  699.9999m   31.6186n 
 -688.90678m  699.9999m   31.6186n 
 -688.80678m  699.9999m   31.6186n 
 -688.70678m  699.9999m   31.6186n 
 -688.60678m  699.9999m   31.6186n 
 -688.50678m  699.9999m   31.6186n 
 -688.40678m  699.9999m   31.6186n 
 -688.30678m  699.9999m   31.6186n 
 -688.20678m  699.9999m   31.6186n 
 -688.10678m  699.9999m   31.6186n 
 -688.00678m  699.9999m   31.6186n 
 -687.90678m  699.9999m   31.6186n 
 -687.80678m  699.9999m   31.6186n 
 -687.70678m  699.9999m   31.6186n 
 -687.60678m  699.9999m   31.6186n 
 -687.50678m  699.9999m   31.6186n 
 -687.40678m  699.9999m   31.6186n 
 -687.30678m  699.9999m   31.6186n 
 -687.20678m  699.9999m   31.6186n 
 -687.10678m  699.9999m   31.6186n 
 -687.00678m  699.9999m   31.6186n 
 -686.90678m  699.9999m   31.6186n 
 -686.80678m  699.9999m   31.6186n 
 -686.70678m  699.9999m   31.6186n 
 -686.60678m  699.9999m   31.6186n 
 -686.50678m  699.9999m   31.6186n 
 -686.40678m  699.9999m   31.6186n 
 -686.30678m  699.9999m   31.6186n 
 -686.20678m  699.9999m   31.6186n 
 -686.10678m  699.9999m   31.6186n 
 -686.00678m  699.9999m   31.6186n 
 -685.90678m  699.9999m   31.6186n 
 -685.80678m  699.9999m   31.6186n 
 -685.70678m  699.9999m   31.6186n 
 -685.60678m  699.9999m   31.6186n 
 -685.50678m  699.9999m   31.6186n 
 -685.40678m  699.9999m   31.6186n 
 -685.30678m  699.9999m   31.6186n 
 -685.20678m  699.9999m   31.6186n 
 -685.10678m  699.9999m   31.6186n 
 -685.00678m  699.9999m   31.6186n 
 -684.90678m  699.9999m   31.6186n 
 -684.80678m  699.9999m   31.6186n 
 -684.70678m  699.9999m   31.6186n 
 -684.60678m  699.9999m   31.6186n 
 -684.50678m  699.9999m   31.6186n 
 -684.40678m  699.9999m   31.6186n 
 -684.30678m  699.9999m   31.6186n 
 -684.20678m  699.9999m   31.6186n 
 -684.10678m  699.9999m   31.6186n 
 -684.00678m  699.9999m   31.6186n 
 -683.90678m  699.9999m   31.6186n 
 -683.80678m  699.9999m   31.6186n 
 -683.70678m  699.9999m   31.6186n 
 -683.60678m  699.9999m   31.6186n 
 -683.50678m  699.9999m   31.6186n 
 -683.40678m  699.9999m   31.6186n 
 -683.30678m  699.9999m   31.6186n 
 -683.20678m  699.9999m   31.6186n 
 -683.10678m  699.9999m   31.6186n 
 -683.00678m  699.9999m   31.6186n 
 -682.90678m  699.9999m   31.6186n 
 -682.80678m  699.9999m   31.6186n 
 -682.70678m  699.9999m   31.6186n 
 -682.60678m  699.9999m   31.6186n 
 -682.50678m  699.9999m   31.6186n 
 -682.40678m  699.9999m   31.6186n 
 -682.30678m  699.9999m   31.6186n 
 -682.20678m  699.9999m   31.6186n 
 -682.10678m  699.9999m   31.6186n 
 -682.00678m  699.9999m   31.6186n 
 -681.90678m  699.9999m   31.6186n 
 -681.80678m  699.9999m   31.6186n 
 -681.70678m  699.9999m   31.6186n 
 -681.60678m  699.9999m   31.6186n 
 -681.50678m  699.9999m   31.6186n 
 -681.40678m  699.9999m   31.6186n 
 -681.30678m  699.9999m   31.6186n 
 -681.20678m  699.9999m   31.6186n 
 -681.10678m  699.9999m   31.6186n 
 -681.00678m  699.9999m   31.6186n 
 -680.90678m  699.9999m   31.6186n 
 -680.80678m  699.9999m   31.6186n 
 -680.70678m  699.9999m   31.6186n 
 -680.60678m  699.9999m   31.6186n 
 -680.50678m  699.9999m   31.6186n 
 -680.40678m  699.9999m   31.6186n 
 -680.30678m  699.9999m   31.6186n 
 -680.20678m  699.9999m   31.6186n 
 -680.10678m  699.9999m   31.6186n 
 -680.00678m  699.9999m   31.6186n 
 -679.90678m  699.9999m   31.6186n 
 -679.80678m  699.9999m   31.6186n 
 -679.70678m  699.9999m   31.6186n 
 -679.60678m  699.9999m   31.6186n 
 -679.50678m  699.9999m   31.6186n 
 -679.40678m  699.9999m   31.6186n 
 -679.30678m  699.9999m   31.6186n 
 -679.20678m  699.9999m   31.6186n 
 -679.10678m  699.9999m   31.6186n 
 -679.00678m  699.9999m   31.6186n 
 -678.90678m  699.9999m   31.6186n 
 -678.80678m  699.9999m   31.6186n 
 -678.70678m  699.9999m   31.6186n 
 -678.60678m  699.9999m   31.6186n 
 -678.50678m  699.9999m   31.6186n 
 -678.40678m  699.9999m   31.6186n 
 -678.30678m  699.9999m   31.6186n 
 -678.20678m  699.9999m   31.6186n 
 -678.10678m  699.9999m   31.6186n 
 -678.00678m  699.9999m   31.6186n 
 -677.90678m  699.9999m   31.6186n 
 -677.80678m  699.9999m   31.6186n 
 -677.70678m  699.9999m   31.6186n 
 -677.60678m  699.9999m   31.6186n 
 -677.50678m  699.9999m   31.6186n 
 -677.40678m  699.9999m   31.6186n 
 -677.30678m  699.9999m   31.6186n 
 -677.20678m  699.9999m   31.6186n 
 -677.10678m  699.9999m   31.6186n 
 -677.00678m  699.9999m   31.6186n 
 -676.90678m  699.9999m   31.6186n 
 -676.80678m  699.9999m   31.6186n 
 -676.70678m  699.9999m   31.6186n 
 -676.60678m  699.9999m   31.6186n 
 -676.50678m  699.9999m   31.6186n 
 -676.40678m  699.9999m   31.6186n 
 -676.30678m  699.9999m   31.6186n 
 -676.20678m  699.9999m   31.6186n 
 -676.10678m  699.9999m   31.6186n 
 -676.00678m  699.9999m   31.6186n 
 -675.90678m  699.9999m   31.6186n 
 -675.80678m  699.9999m   31.6186n 
 -675.70678m  699.9999m   31.6186n 
 -675.60678m  699.9999m   31.6186n 
 -675.50678m  699.9999m   31.6186n 
 -675.40678m  699.9999m   31.6186n 
 -675.30678m  699.9999m   31.6186n 
 -675.20678m  699.9999m   31.6186n 
 -675.10678m  699.9999m   31.6186n 
 -675.00678m  699.9999m   31.6186n 
 -674.90678m  699.9999m   31.6186n 
 -674.80678m  699.9999m   31.6186n 
 -674.70678m  699.9999m   31.6186n 
 -674.60678m  699.9999m   31.6186n 
 -674.50678m  699.9999m   31.6186n 
 -674.40678m  699.9999m   31.6186n 
 -674.30678m  699.9999m   31.6186n 
 -674.20678m  699.9999m   31.6186n 
 -674.10678m  699.9999m   31.6186n 
 -674.00678m  699.9999m   31.6186n 
 -673.90678m  699.9999m   31.6186n 
 -673.80678m  699.9999m   31.6186n 
 -673.70678m  699.9999m   31.6186n 
 -673.60678m  699.9999m   31.6186n 
 -673.50678m  699.9999m   31.6186n 
 -673.40678m  699.9999m   31.6186n 
 -673.30678m  699.9999m   31.6186n 
 -673.20678m  699.9999m   31.6186n 
 -673.10678m  699.9999m   31.6186n 
 -673.00678m  699.9999m   31.6186n 
 -672.90678m  699.9999m   31.6186n 
 -672.80678m  699.9999m   31.6186n 
 -672.70678m  699.9999m   31.6186n 
 -672.60678m  699.9999m   31.6186n 
 -672.50678m  699.9999m   31.6186n 
 -672.40678m  699.9999m   31.6186n 
 -672.30678m  699.9999m   31.6186n 
 -672.20678m  699.9999m   31.6186n 
 -672.10678m  699.9999m   31.6186n 
 -672.00678m  699.9999m   31.6186n 
 -671.90678m  699.9999m   31.6186n 
 -671.80678m  699.9999m   31.6186n 
 -671.70678m  699.9999m   31.6186n 
 -671.60678m  699.9999m   31.6186n 
 -671.50678m  699.9999m   31.6186n 
 -671.40678m  699.9999m   31.6186n 
 -671.30678m  699.9999m   31.6186n 
 -671.20678m  699.9999m   31.6186n 
 -671.10678m  699.9999m   31.6186n 
 -671.00678m  699.9999m   31.6186n 
 -670.90678m  699.9999m   31.6186n 
 -670.80678m  699.9999m   31.6186n 
 -670.70678m  699.9999m   31.6186n 
 -670.60678m  699.9999m   31.6186n 
 -670.50678m  699.9999m   31.6186n 
 -670.40678m  699.9999m   31.6186n 
 -670.30678m  699.9999m   31.6186n 
 -670.20678m  699.9999m   31.6186n 
 -670.10678m  699.9999m   31.6186n 
 -670.00678m  699.9999m   31.6186n 
 -669.90678m  699.9999m   31.6186n 
 -669.80678m  699.9999m   31.6186n 
 -669.70678m  699.9999m   31.6186n 
 -669.60678m  699.9999m   31.6186n 
 -669.50678m  699.9999m   31.6186n 
 -669.40678m  699.9999m   31.6186n 
 -669.30678m  699.9999m   31.6186n 
 -669.20678m  699.9999m   31.6186n 
 -669.10678m  699.9999m   31.6186n 
 -669.00678m  699.9999m   31.6186n 
 -668.90678m  699.9999m   31.6186n 
 -668.80678m  699.9999m   31.6186n 
 -668.70678m  699.9999m   31.6186n 
 -668.60678m  699.9999m   31.6186n 
 -668.50678m  699.9999m   31.6186n 
 -668.40678m  699.9999m   31.6186n 
 -668.30678m  699.9999m   31.6186n 
 -668.20678m  699.9999m   31.6186n 
 -668.10678m  699.9999m   31.6186n 
 -668.00678m  699.9999m   31.6186n 
 -667.90678m  699.9999m   31.6186n 
 -667.80678m  699.9999m   31.6186n 
 -667.70678m  699.9999m   31.6186n 
 -667.60678m  699.9999m   31.6186n 
 -667.50678m  699.9999m   31.6186n 
 -667.40678m  699.9999m   31.6186n 
 -667.30678m  699.9999m   31.6186n 
 -667.20678m  699.9999m   31.6186n 
 -667.10678m  699.9999m   31.6186n 
 -667.00678m  699.9999m   31.6186n 
 -666.90678m  699.9999m   31.6186n 
 -666.80678m  699.9999m   31.6186n 
 -666.70678m  699.9999m   31.6186n 
 -666.60678m  699.9999m   31.6186n 
 -666.50678m  699.9999m   31.6186n 
 -666.40678m  699.9999m   31.6186n 
 -666.30678m  699.9999m   31.6186n 
 -666.20678m  699.9999m   31.6186n 
 -666.10678m  699.9999m   31.6186n 
 -666.00678m  699.9999m   31.6186n 
 -665.90678m  699.9999m   31.6186n 
 -665.80678m  699.9999m   31.6186n 
 -665.70678m  699.9999m   31.6186n 
 -665.60678m  699.9999m   31.6186n 
 -665.50678m  699.9999m   31.6186n 
 -665.40678m  699.9999m   31.6186n 
 -665.30678m  699.9999m   31.6186n 
 -665.20678m  699.9999m   31.6186n 
 -665.10678m  699.9999m   31.6186n 
 -665.00678m  699.9999m   31.6186n 
 -664.90678m  699.9999m   31.6186n 
 -664.80678m  699.9999m   31.6186n 
 -664.70678m  699.9999m   31.6186n 
 -664.60678m  699.9999m   31.6186n 
 -664.50678m  699.9999m   31.6186n 
 -664.40678m  699.9999m   31.6186n 
 -664.30678m  699.9999m   31.6186n 
 -664.20678m  699.9999m   31.6186n 
 -664.10678m  699.9999m   31.6186n 
 -664.00678m  699.9999m   31.6186n 
 -663.90678m  699.9999m   31.6186n 
 -663.80678m  699.9999m   31.6186n 
 -663.70678m  699.9999m   31.6186n 
 -663.60678m  699.9999m   31.6186n 
 -663.50678m  699.9999m   31.6186n 
 -663.40678m  699.9999m   31.6186n 
 -663.30678m  699.9999m   31.6186n 
 -663.20678m  699.9999m   31.6186n 
 -663.10678m  699.9999m   31.6186n 
 -663.00678m  699.9999m   31.6186n 
 -662.90678m  699.9999m   31.6186n 
 -662.80678m  699.9999m   31.6186n 
 -662.70678m  699.9999m   31.6186n 
 -662.60678m  699.9999m   31.6186n 
 -662.50678m  699.9999m   31.6186n 
 -662.40678m  699.9999m   31.6186n 
 -662.30678m  699.9999m   31.6186n 
 -662.20678m  699.9999m   31.6186n 
 -662.10678m  699.9999m   31.6186n 
 -662.00678m  699.9999m   31.6186n 
 -661.90678m  699.9999m   31.6186n 
 -661.80678m  699.9999m   31.6186n 
 -661.70678m  699.9999m   31.6186n 
 -661.60678m  699.9999m   31.6186n 
 -661.50678m  699.9999m   31.6186n 
 -661.40678m  699.9999m   31.6186n 
 -661.30678m  699.9999m   31.6186n 
 -661.20678m  699.9999m   31.6186n 
 -661.10678m  699.9999m   31.6186n 
 -661.00678m  699.9999m   31.6186n 
 -660.90678m  699.9999m   31.6186n 
 -660.80678m  699.9999m   31.6186n 
 -660.70678m  699.9999m   31.6186n 
 -660.60678m  699.9999m   31.6186n 
 -660.50678m  699.9999m   31.6186n 
 -660.40678m  699.9999m   31.6186n 
 -660.30678m  699.9999m   31.6186n 
 -660.20678m  699.9999m   31.6186n 
 -660.10678m  699.9999m   31.6186n 
 -660.00678m  699.9999m   31.6186n 
 -659.90678m  699.9999m   31.6186n 
 -659.80678m  699.9999m   31.6186n 
 -659.70678m  699.9999m   31.6186n 
 -659.60678m  699.9999m   31.6186n 
 -659.50678m  699.9999m   31.6186n 
 -659.40678m  699.9999m   31.6186n 
 -659.30678m  699.9999m   31.6186n 
 -659.20678m  699.9999m   31.6186n 
 -659.10678m  699.9999m   31.6186n 
 -659.00678m  699.9999m   31.6186n 
 -658.90678m  699.9999m   31.6186n 
 -658.80678m  699.9999m   31.6186n 
 -658.70678m  699.9999m   31.6186n 
 -658.60678m  699.9999m   31.6186n 
 -658.50678m  699.9999m   31.6186n 
 -658.40678m  699.9999m   31.6186n 
 -658.30678m  699.9999m   31.6186n 
 -658.20678m  699.9999m   31.6186n 
 -658.10678m  699.9999m   31.6186n 
 -658.00678m  699.9999m   31.6186n 
 -657.90678m  699.9999m   31.6186n 
 -657.80678m  699.9999m   31.6186n 
 -657.70678m  699.9999m   31.6186n 
 -657.60678m  699.9999m   31.6186n 
 -657.50678m  699.9999m   31.6186n 
 -657.40678m  699.9999m   31.6186n 
 -657.30678m  699.9999m   31.6186n 
 -657.20678m  699.9999m   31.6186n 
 -657.10678m  699.9999m   31.6186n 
 -657.00678m  699.9999m   31.6186n 
 -656.90678m  699.9999m   31.6186n 
 -656.80678m  699.9999m   31.6186n 
 -656.70678m  699.9999m   31.6186n 
 -656.60678m  699.9999m   31.6186n 
 -656.50678m  699.9999m   31.6186n 
 -656.40678m  699.9999m   31.6186n 
 -656.30678m  699.9999m   31.6186n 
 -656.20678m  699.9999m   31.6186n 
 -656.10678m  699.9999m   31.6186n 
 -656.00678m  699.9999m   31.6186n 
 -655.90678m  699.9999m   31.6186n 
 -655.80678m  699.9999m   31.6186n 
 -655.70678m  699.9999m   31.6186n 
 -655.60678m  699.9999m   31.6186n 
 -655.50678m  699.9999m   31.6186n 
 -655.40678m  699.9999m   31.6186n 
 -655.30678m  699.9999m   31.6186n 
 -655.20678m  699.9999m   31.6186n 
 -655.10678m  699.9999m   31.6186n 
 -655.00678m  699.9999m   31.6186n 
 -654.90678m  699.9999m   31.6186n 
 -654.80678m  699.9999m   31.6186n 
 -654.70678m  699.9999m   31.6186n 
 -654.60678m  699.9999m   31.6186n 
 -654.50678m  699.9999m   31.6186n 
 -654.40678m  699.9999m   31.6186n 
 -654.30678m  699.9999m   31.6186n 
 -654.20678m  699.9999m   31.6186n 
 -654.10678m  699.9999m   31.6186n 
 -654.00678m  699.9999m   31.6186n 
 -653.90678m  699.9999m   31.6186n 
 -653.80678m  699.9999m   31.6186n 
 -653.70678m  699.9999m   31.6186n 
 -653.60678m  699.9999m   31.6186n 
 -653.50678m  699.9999m   31.6186n 
 -653.40678m  699.9999m   31.6186n 
 -653.30678m  699.9999m   31.6186n 
 -653.20678m  699.9999m   31.6186n 
 -653.10678m  699.9999m   31.6186n 
 -653.00678m  699.9999m   31.6186n 
 -652.90678m  699.9999m   31.6186n 
 -652.80678m  699.9999m   31.6186n 
 -652.70678m  699.9999m   31.6186n 
 -652.60678m  699.9999m   31.6186n 
 -652.50678m  699.9999m   31.6186n 
 -652.40678m  699.9999m   31.6186n 
 -652.30678m  699.9999m   31.6186n 
 -652.20678m  699.9999m   31.6186n 
 -652.10678m  699.9999m   31.6186n 
 -652.00678m  699.9999m   31.6186n 
 -651.90678m  699.9999m   31.6186n 
 -651.80678m  699.9999m   31.6186n 
 -651.70678m  699.9999m   31.6186n 
 -651.60678m  699.9999m   31.6186n 
 -651.50678m  699.9999m   31.6186n 
 -651.40678m  699.9999m   31.6186n 
 -651.30678m  699.9999m   31.6186n 
 -651.20678m  699.9999m   31.6186n 
 -651.10678m  699.9999m   31.6186n 
 -651.00678m  699.9999m   31.6186n 
 -650.90678m  699.9999m   31.6186n 
 -650.80678m  699.9999m   31.6186n 
 -650.70678m  699.9999m   31.6186n 
 -650.60678m  699.9999m   31.6186n 
 -650.50678m  699.9999m   31.6186n 
 -650.40678m  699.9999m   31.6186n 
 -650.30678m  699.9999m   31.6186n 
 -650.20678m  699.9999m   31.6186n 
 -650.10678m  699.9999m   31.6186n 
 -650.00678m  699.9999m   31.6186n 
 -649.90678m  699.9999m   31.6186n 
 -649.80678m  699.9999m   31.6186n 
 -649.70678m  699.9999m   31.6186n 
 -649.60678m  699.9999m   31.6186n 
 -649.50678m  699.9999m   31.6186n 
 -649.40678m  699.9999m   31.6186n 
 -649.30678m  699.9999m   31.6186n 
 -649.20678m  699.9999m   31.6186n 
 -649.10678m  699.9999m   31.6186n 
 -649.00678m  699.9999m   31.6186n 
 -648.90678m  699.9999m   31.6186n 
 -648.80678m  699.9999m   31.6186n 
 -648.70678m  699.9999m   31.6186n 
 -648.60678m  699.9999m   31.6186n 
 -648.50678m  699.9999m   31.6186n 
 -648.40678m  699.9999m   31.6186n 
 -648.30678m  699.9999m   31.6186n 
 -648.20678m  699.9999m   31.6186n 
 -648.10678m  699.9999m   31.6186n 
 -648.00678m  699.9999m   31.6186n 
 -647.90678m  699.9999m   31.6186n 
 -647.80678m  699.9999m   31.6186n 
 -647.70678m  699.9999m   31.6186n 
 -647.60678m  699.9999m   31.6186n 
 -647.50678m  699.9999m   31.6186n 
 -647.40678m  699.9999m   31.6186n 
 -647.30678m  699.9999m   31.6186n 
 -647.20678m  699.9999m   31.6186n 
 -647.10678m  699.9999m   31.6186n 
 -647.00678m  699.9999m   31.6186n 
 -646.90678m  699.9999m   31.6186n 
 -646.80678m  699.9999m   31.6186n 
 -646.70678m  699.9999m   31.6186n 
 -646.60678m  699.9999m   31.6186n 
 -646.50678m  699.9999m   31.6186n 
 -646.40678m  699.9999m   31.6186n 
 -646.30678m  699.9999m   31.6186n 
 -646.20678m  699.9999m   31.6186n 
 -646.10678m  699.9999m   31.6186n 
 -646.00678m  699.9999m   31.6186n 
 -645.90678m  699.9999m   31.6186n 
 -645.80678m  699.9999m   31.6186n 
 -645.70678m  699.9999m   31.6186n 
 -645.60678m  699.9999m   31.6186n 
 -645.50678m  699.9999m   31.6186n 
 -645.40678m  699.9999m   31.6186n 
 -645.30678m  699.9999m   31.6186n 
 -645.20678m  699.9999m   31.6186n 
 -645.10678m  699.9999m   31.6186n 
 -645.00678m  699.9999m   31.6186n 
 -644.90678m  699.9999m   31.6186n 
 -644.80678m  699.9999m   31.6186n 
 -644.70678m  699.9999m   31.6186n 
 -644.60678m  699.9999m   31.6186n 
 -644.50678m  699.9999m   31.6186n 
 -644.40678m  699.9999m   31.6186n 
 -644.30678m  699.9999m   31.6186n 
 -644.20678m  699.9999m   31.6186n 
 -644.10678m  699.9999m   31.6186n 
 -644.00678m  699.9999m   31.6186n 
 -643.90678m  699.9999m   31.6186n 
 -643.80678m  699.9999m   31.6186n 
 -643.70678m  699.9999m   31.6186n 
 -643.60678m  699.9999m   31.6186n 
 -643.50678m  699.9999m   31.6186n 
 -643.40678m  699.9999m   31.6186n 
 -643.30678m  699.9999m   31.6186n 
 -643.20678m  699.9999m   31.6186n 
 -643.10678m  699.9999m   31.6186n 
 -643.00678m  699.9999m   31.6186n 
 -642.90678m  699.9999m   31.6186n 
 -642.80678m  699.9999m   31.6186n 
 -642.70678m  699.9999m   31.6186n 
 -642.60678m  699.9999m   31.6186n 
 -642.50678m  699.9999m   31.6186n 
 -642.40678m  699.9999m   31.6186n 
 -642.30678m  699.9999m   31.6186n 
 -642.20678m  699.9999m   31.6186n 
 -642.10678m  699.9999m   31.6186n 
 -642.00678m  699.9999m   31.6186n 
 -641.90678m  699.9999m   31.6186n 
 -641.80678m  699.9999m   31.6186n 
 -641.70678m  699.9999m   31.6186n 
 -641.60678m  699.9999m   31.6186n 
 -641.50678m  699.9999m   31.6186n 
 -641.40678m  699.9999m   31.6186n 
 -641.30678m  699.9999m   31.6186n 
 -641.20678m  699.9999m   31.6186n 
 -641.10678m  699.9999m   31.6186n 
 -641.00678m  699.9999m   31.6186n 
 -640.90678m  699.9999m   31.6186n 
 -640.80678m  699.9999m   31.6186n 
 -640.70678m  699.9999m   31.6186n 
 -640.60678m  699.9999m   31.6186n 
 -640.50678m  699.9999m   31.6186n 
 -640.40678m  699.9999m   31.6186n 
 -640.30678m  699.9999m   31.6186n 
 -640.20678m  699.9999m   31.6186n 
 -640.10678m  699.9999m   31.6186n 
 -640.00678m  699.9999m   31.6186n 
 -639.90678m  699.9999m   31.6186n 
 -639.80678m  699.9999m   31.6186n 
 -639.70678m  699.9999m   31.6186n 
 -639.60678m  699.9999m   31.6186n 
 -639.50678m  699.9999m   31.6186n 
 -639.40678m  699.9999m   31.6186n 
 -639.30678m  699.9999m   31.6186n 
 -639.20678m  699.9999m   31.6186n 
 -639.10678m  699.9999m   31.6186n 
 -639.00678m  699.9999m   31.6186n 
 -638.90678m  699.9999m   31.6186n 
 -638.80678m  699.9999m   31.6186n 
 -638.70678m  699.9999m   31.6186n 
 -638.60678m  699.9999m   31.6186n 
 -638.50678m  699.9999m   31.6186n 
 -638.40678m  699.9999m   31.6186n 
 -638.30678m  699.9999m   31.6186n 
 -638.20678m  699.9999m   31.6186n 
 -638.10678m  699.9999m   31.6186n 
 -638.00678m  699.9999m   31.6186n 
 -637.90678m  699.9999m   31.6186n 
 -637.80678m  699.9999m   31.6186n 
 -637.70678m  699.9999m   31.6186n 
 -637.60678m  699.9999m   31.6186n 
 -637.50678m  699.9999m   31.6186n 
 -637.40678m  699.9999m   31.6186n 
 -637.30678m  699.9999m   31.6186n 
 -637.20678m  699.9999m   31.6186n 
 -637.10678m  699.9999m   31.6186n 
 -637.00678m  699.9999m   31.6186n 
 -636.90678m  699.9999m   31.6186n 
 -636.80678m  699.9999m   31.6186n 
 -636.70678m  699.9999m   31.6186n 
 -636.60678m  699.9999m   31.6186n 
 -636.50678m  699.9999m   31.6186n 
 -636.40678m  699.9999m   31.6186n 
 -636.30678m  699.9999m   31.6186n 
 -636.20678m  699.9999m   31.6186n 
 -636.10678m  699.9999m   31.6186n 
 -636.00678m  699.9999m   31.6186n 
 -635.90678m  699.9999m   31.6186n 
 -635.80678m  699.9999m   31.6186n 
 -635.70678m  699.9999m   31.6186n 
 -635.60678m  699.9999m   31.6186n 
 -635.50678m  699.9999m   31.6186n 
 -635.40678m  699.9999m   31.6186n 
 -635.30678m  699.9999m   31.6186n 
 -635.20678m  699.9999m   31.6186n 
 -635.10678m  699.9999m   31.6186n 
 -635.00678m  699.9999m   31.6186n 
 -634.90678m  699.9999m   31.6186n 
 -634.80678m  699.9999m   31.6186n 
 -634.70678m  699.9999m   31.6186n 
 -634.60678m  699.9999m   31.6186n 
 -634.50678m  699.9999m   31.6186n 
 -634.40678m  699.9999m   31.6186n 
 -634.30678m  699.9999m   31.6186n 
 -634.20678m  699.9999m   31.6186n 
 -634.10678m  699.9999m   31.6186n 
 -634.00678m  699.9999m   31.6186n 
 -633.90678m  699.9999m   31.6186n 
 -633.80678m  699.9999m   31.6186n 
 -633.70678m  699.9999m   31.6186n 
 -633.60678m  699.9999m   31.6186n 
 -633.50678m  699.9999m   31.6186n 
 -633.40678m  699.9999m   31.6186n 
 -633.30678m  699.9999m   31.6186n 
 -633.20678m  699.9999m   31.6186n 
 -633.10678m  699.9999m   31.6186n 
 -633.00678m  699.9999m   31.6186n 
 -632.90678m  699.9999m   31.6186n 
 -632.80678m  699.9999m   31.6186n 
 -632.70678m  699.9999m   31.6186n 
 -632.60678m  699.9999m   31.6186n 
 -632.50678m  699.9999m   31.6186n 
 -632.40678m  699.9999m   31.6186n 
 -632.30678m  699.9999m   31.6186n 
 -632.20678m  699.9999m   31.6186n 
 -632.10678m  699.9999m   31.6186n 
 -632.00678m  699.9999m   31.6186n 
 -631.90678m  699.9999m   31.6186n 
 -631.80678m  699.9999m   31.6186n 
 -631.70678m  699.9999m   31.6186n 
 -631.60678m  699.9999m   31.6186n 
 -631.50678m  699.9999m   31.6186n 
 -631.40678m  699.9999m   31.6186n 
 -631.30678m  699.9999m   31.6186n 
 -631.20678m  699.9999m   31.6186n 
 -631.10678m  699.9999m   31.6186n 
 -631.00678m  699.9999m   31.6186n 
 -630.90678m  699.9999m   31.6186n 
 -630.80678m  699.9999m   31.6186n 
 -630.70678m  699.9999m   31.6186n 
 -630.60678m  699.9999m   31.6186n 
 -630.50678m  699.9999m   31.6186n 
 -630.40678m  699.9999m   31.6186n 
 -630.30678m  699.9999m   31.6186n 
 -630.20678m  699.9999m   31.6186n 
 -630.10678m  699.9999m   31.6186n 
 -630.00678m  699.9999m   31.6186n 
 -629.90678m  699.9999m   31.6186n 
 -629.80678m  699.9999m   31.6186n 
 -629.70678m  699.9999m   31.6186n 
 -629.60678m  699.9999m   31.6186n 
 -629.50678m  699.9999m   31.6186n 
 -629.40678m  699.9999m   31.6186n 
 -629.30678m  699.9999m   31.6186n 
 -629.20678m  699.9999m   31.6186n 
 -629.10678m  699.9999m   31.6186n 
 -629.00678m  699.9999m   31.6186n 
 -628.90678m  699.9999m   31.6186n 
 -628.80678m  699.9999m   31.6186n 
 -628.70678m  699.9999m   31.6186n 
 -628.60678m  699.9999m   31.6186n 
 -628.50678m  699.9999m   31.6186n 
 -628.40678m  699.9999m   31.6186n 
 -628.30678m  699.9999m   31.6186n 
 -628.20678m  699.9999m   31.6186n 
 -628.10678m  699.9999m   31.6186n 
 -628.00678m  699.9999m   31.6186n 
 -627.90678m  699.9999m   31.6186n 
 -627.80678m  699.9999m   31.6186n 
 -627.70678m  699.9999m   31.6186n 
 -627.60678m  699.9999m   31.6186n 
 -627.50678m  699.9999m   31.6186n 
 -627.40678m  699.9999m   31.6186n 
 -627.30678m  699.9999m   31.6186n 
 -627.20678m  699.9999m   31.6186n 
 -627.10678m  699.9999m   31.6186n 
 -627.00678m  699.9999m   31.6186n 
 -626.90678m  699.9999m   31.6186n 
 -626.80678m  699.9999m   31.6186n 
 -626.70678m  699.9999m   31.6186n 
 -626.60678m  699.9999m   31.6186n 
 -626.50678m  699.9999m   31.6186n 
 -626.40678m  699.9999m   31.6186n 
 -626.30678m  699.9999m   31.6186n 
 -626.20678m  699.9999m   31.6186n 
 -626.10678m  699.9999m   31.6186n 
 -626.00678m  699.9999m   31.6186n 
 -625.90678m  699.9999m   31.6186n 
 -625.80678m  699.9999m   31.6186n 
 -625.70678m  699.9999m   31.6186n 
 -625.60678m  699.9999m   31.6186n 
 -625.50678m  699.9999m   31.6186n 
 -625.40678m  699.9999m   31.6186n 
 -625.30678m  699.9999m   31.6186n 
 -625.20678m  699.9999m   31.6186n 
 -625.10678m  699.9999m   31.6186n 
 -625.00678m  699.9999m   31.6186n 
 -624.90678m  699.9999m   31.6186n 
 -624.80678m  699.9999m   31.6186n 
 -624.70678m  699.9999m   31.6186n 
 -624.60678m  699.9999m   31.6186n 
 -624.50678m  699.9999m   31.6186n 
 -624.40678m  699.9999m   31.6186n 
 -624.30678m  699.9999m   31.6186n 
 -624.20678m  699.9999m   31.6186n 
 -624.10678m  699.9999m   31.6186n 
 -624.00678m  699.9999m   31.6186n 
 -623.90678m  699.9999m   31.6186n 
 -623.80678m  699.9999m   31.6186n 
 -623.70678m  699.9999m   31.6186n 
 -623.60678m  699.9999m   31.6186n 
 -623.50678m  699.9999m   31.6186n 
 -623.40678m  699.9999m   31.6186n 
 -623.30678m  699.9999m   31.6186n 
 -623.20678m  699.9999m   31.6186n 
 -623.10678m  699.9999m   31.6186n 
 -623.00678m  699.9999m   31.6186n 
 -622.90678m  699.9999m   31.6186n 
 -622.80678m  699.9999m   31.6186n 
 -622.70678m  699.9999m   31.6186n 
 -622.60678m  699.9999m   31.6186n 
 -622.50678m  699.9999m   31.6186n 
 -622.40678m  699.9999m   31.6186n 
 -622.30678m  699.9999m   31.6186n 
 -622.20678m  699.9999m   31.6186n 
 -622.10678m  699.9999m   31.6186n 
 -622.00678m  699.9999m   31.6186n 
 -621.90678m  699.9999m   31.6186n 
 -621.80678m  699.9999m   31.6186n 
 -621.70678m  699.9999m   31.6186n 
 -621.60678m  699.9999m   31.6186n 
 -621.50678m  699.9999m   31.6186n 
 -621.40678m  699.9999m   31.6186n 
 -621.30678m  699.9999m   31.6186n 
 -621.20678m  699.9999m   31.6186n 
 -621.10678m  699.9999m   31.6186n 
 -621.00678m  699.9999m   31.6186n 
 -620.90678m  699.9999m   31.6186n 
 -620.80678m  699.9999m   31.6186n 
 -620.70678m  699.9999m   31.6186n 
 -620.60678m  699.9999m   31.6186n 
 -620.50678m  699.9999m   31.6186n 
 -620.40678m  699.9999m   31.6186n 
 -620.30678m  699.9999m   31.6186n 
 -620.20678m  699.9999m   31.6186n 
 -620.10678m  699.9999m   31.6186n 
 -620.00678m  699.9999m   31.6186n 
 -619.90678m  699.9999m   31.6186n 
 -619.80678m  699.9999m   31.6186n 
 -619.70678m  699.9999m   31.6186n 
 -619.60678m  699.9999m   31.6186n 
 -619.50678m  699.9999m   31.6186n 
 -619.40678m  699.9999m   31.6186n 
 -619.30678m  699.9999m   31.6186n 
 -619.20678m  699.9999m   31.6186n 
 -619.10678m  699.9999m   31.6186n 
 -619.00678m  699.9999m   31.6186n 
 -618.90678m  699.9999m   31.6186n 
 -618.80678m  699.9999m   31.6186n 
 -618.70678m  699.9999m   31.6186n 
 -618.60678m  699.9999m   31.6186n 
 -618.50678m  699.9999m   31.6186n 
 -618.40678m  699.9999m   31.6186n 
 -618.30678m  699.9999m   31.6186n 
 -618.20678m  699.9999m   31.6186n 
 -618.10678m  699.9999m   31.6186n 
 -618.00678m  699.9999m   31.6186n 
 -617.90678m  699.9999m   31.6186n 
 -617.80678m  699.9999m   31.6186n 
 -617.70678m  699.9999m   31.6186n 
 -617.60678m  699.9999m   31.6186n 
 -617.50678m  699.9999m   31.6186n 
 -617.40678m  699.9999m   31.6186n 
 -617.30678m  699.9999m   31.6186n 
 -617.20678m  699.9999m   31.6186n 
 -617.10678m  699.9999m   31.6186n 
 -617.00678m  699.9999m   31.6186n 
 -616.90678m  699.9999m   31.6186n 
 -616.80678m  699.9999m   31.6186n 
 -616.70678m  699.9999m   31.6186n 
 -616.60678m  699.9999m   31.6186n 
 -616.50678m  699.9999m   31.6186n 
 -616.40678m  699.9999m   31.6186n 
 -616.30678m  699.9999m   31.6186n 
 -616.20678m  699.9999m   31.6186n 
 -616.10678m  699.9999m   31.6186n 
 -616.00678m  699.9999m   31.6186n 
 -615.90678m  699.9999m   31.6186n 
 -615.80678m  699.9999m   31.6186n 
 -615.70678m  699.9999m   31.6186n 
 -615.60678m  699.9999m   31.6186n 
 -615.50678m  699.9999m   31.6186n 
 -615.40678m  699.9999m   31.6186n 
 -615.30678m  699.9999m   31.6186n 
 -615.20678m  699.9999m   31.6186n 
 -615.10678m  699.9999m   31.6186n 
 -615.00678m  699.9999m   31.6186n 
 -614.90678m  699.9999m   31.6186n 
 -614.80678m  699.9999m   31.6186n 
 -614.70678m  699.9999m   31.6186n 
 -614.60678m  699.9999m   31.6186n 
 -614.50678m  699.9999m   31.6186n 
 -614.40678m  699.9999m   31.6186n 
 -614.30678m  699.9999m   31.6186n 
 -614.20678m  699.9999m   31.6186n 
 -614.10678m  699.9999m   31.6186n 
 -614.00678m  699.9999m   31.6186n 
 -613.90678m  699.9999m   31.6186n 
 -613.80678m  699.9999m   31.6186n 
 -613.70678m  699.9999m   31.6186n 
 -613.60678m  699.9999m   31.6186n 
 -613.50678m  699.9999m   31.6186n 
 -613.40678m  699.9999m   31.6186n 
 -613.30678m  699.9999m   31.6186n 
 -613.20678m  699.9999m   31.6186n 
 -613.10678m  699.9999m   31.6186n 
 -613.00678m  699.9999m   31.6186n 
 -612.90678m  699.9999m   31.6186n 
 -612.80678m  699.9999m   31.6186n 
 -612.70678m  699.9999m   31.6186n 
 -612.60678m  699.9999m   31.6186n 
 -612.50678m  699.9999m   31.6186n 
 -612.40678m  699.9999m   31.6186n 
 -612.30678m  699.9999m   31.6186n 
 -612.20678m  699.9999m   31.6186n 
 -612.10678m  699.9999m   31.6186n 
 -612.00678m  699.9999m   31.6186n 
 -611.90678m  699.9999m   31.6186n 
 -611.80678m  699.9999m   31.6186n 
 -611.70678m  699.9999m   31.6186n 
 -611.60678m  699.9999m   31.6186n 
 -611.50678m  699.9999m   31.6186n 
 -611.40678m  699.9999m   31.6186n 
 -611.30678m  699.9999m   31.6186n 
 -611.20678m  699.9999m   31.6186n 
 -611.10678m  699.9999m   31.6186n 
 -611.00678m  699.9999m   31.6186n 
 -610.90678m  699.9999m   31.6186n 
 -610.80678m  699.9999m   31.6186n 
 -610.70678m  699.9999m   31.6186n 
 -610.60678m  699.9999m   31.6186n 
 -610.50678m  699.9999m   31.6186n 
 -610.40678m  699.9999m   31.6186n 
 -610.30678m  699.9999m   31.6186n 
 -610.20678m  699.9999m   31.6186n 
 -610.10678m  699.9999m   31.6186n 
 -610.00678m  699.9999m   31.6186n 
 -609.90678m  699.9999m   31.6186n 
 -609.80678m  699.9999m   31.6186n 
 -609.70678m  699.9999m   31.6186n 
 -609.60678m  699.9999m   31.6186n 
 -609.50678m  699.9999m   31.6186n 
 -609.40678m  699.9999m   31.6186n 
 -609.30678m  699.9999m   31.6186n 
 -609.20678m  699.9999m   31.6186n 
 -609.10678m  699.9999m   31.6186n 
 -609.00678m  699.9999m   31.6186n 
 -608.90678m  699.9999m   31.6186n 
 -608.80678m  699.9999m   31.6186n 
 -608.70678m  699.9999m   31.6186n 
 -608.60678m  699.9999m   31.6186n 
 -608.50678m  699.9999m   31.6186n 
 -608.40678m  699.9999m   31.6186n 
 -608.30678m  699.9999m   31.6186n 
 -608.20678m  699.9999m   31.6186n 
 -608.10678m  699.9999m   31.6186n 
 -608.00678m  699.9999m   31.6186n 
 -607.90678m  699.9999m   31.6186n 
 -607.80678m  699.9999m   31.6186n 
 -607.70678m  699.9999m   31.6186n 
 -607.60678m  699.9999m   31.6186n 
 -607.50678m  699.9999m   31.6186n 
 -607.40678m  699.9999m   31.6186n 
 -607.30678m  699.9999m   31.6186n 
 -607.20678m  699.9999m   31.6186n 
 -607.10678m  699.9999m   31.6186n 
 -607.00678m  699.9999m   31.6186n 
 -606.90678m  699.9999m   31.6186n 
 -606.80678m  699.9999m   31.6186n 
 -606.70678m  699.9999m   31.6186n 
 -606.60678m  699.9999m   31.6186n 
 -606.50678m  699.9999m   31.6186n 
 -606.40678m  699.9999m   31.6186n 
 -606.30678m  699.9999m   31.6186n 
 -606.20678m  699.9999m   31.6186n 
 -606.10678m  699.9999m   31.6186n 
 -606.00678m  699.9999m   31.6186n 
 -605.90678m  699.9999m   31.6186n 
 -605.80678m  699.9999m   31.6186n 
 -605.70678m  699.9999m   31.6186n 
 -605.60678m  699.9999m   31.6186n 
 -605.50678m  699.9999m   31.6186n 
 -605.40678m  699.9999m   31.6186n 
 -605.30678m  699.9999m   31.6186n 
 -605.20678m  699.9999m   31.6186n 
 -605.10678m  699.9999m   31.6186n 
 -605.00678m  699.9999m   31.6186n 
 -604.90678m  699.9999m   31.6186n 
 -604.80678m  699.9999m   31.6186n 
 -604.70678m  699.9999m   31.6186n 
 -604.60678m  699.9999m   31.6186n 
 -604.50678m  699.9999m   31.6186n 
 -604.40678m  699.9999m   31.6186n 
 -604.30678m  699.9999m   31.6186n 
 -604.20678m  699.9999m   31.6186n 
 -604.10678m  699.9999m   31.6186n 
 -604.00678m  699.9999m   31.6186n 
 -603.90678m  699.9999m   31.6186n 
 -603.80678m  699.9999m   31.6186n 
 -603.70678m  699.9999m   31.6186n 
 -603.60678m  699.9999m   31.6186n 
 -603.50678m  699.9999m   31.6186n 
 -603.40678m  699.9999m   31.6186n 
 -603.30678m  699.9999m   31.6186n 
 -603.20678m  699.9999m   31.6186n 
 -603.10678m  699.9999m   31.6186n 
 -603.00678m  699.9999m   31.6186n 
 -602.90678m  699.9999m   31.6186n 
 -602.80678m  699.9999m   31.6186n 
 -602.70678m  699.9999m   31.6186n 
 -602.60678m  699.9999m   31.6186n 
 -602.50678m  699.9999m   31.6186n 
 -602.40678m  699.9999m   31.6186n 
 -602.30678m  699.9999m   31.6186n 
 -602.20678m  699.9999m   31.6186n 
 -602.10678m  699.9999m   31.6186n 
 -602.00678m  699.9999m   31.6186n 
 -601.90678m  699.9999m   31.6186n 
 -601.80678m  699.9999m   31.6186n 
 -601.70678m  699.9999m   31.6186n 
 -601.60678m  699.9999m   31.6186n 
 -601.50678m  699.9999m   31.6186n 
 -601.40678m  699.9999m   31.6186n 
 -601.30678m  699.9999m   31.6186n 
 -601.20678m  699.9999m   31.6186n 
 -601.10678m  699.9999m   31.6186n 
 -601.00678m  699.9999m   31.6186n 
 -600.90678m  699.9999m   31.6186n 
 -600.80678m  699.9999m   31.6186n 
 -600.70678m  699.9999m   31.6186n 
 -600.60678m  699.9999m   31.6186n 
 -600.50678m  699.9999m   31.6186n 
 -600.40678m  699.9999m   31.6186n 
 -600.30678m  699.9999m   31.6186n 
 -600.20678m  699.9999m   31.6186n 
 -600.10678m  699.9999m   31.6186n 
 -600.00678m  699.9999m   31.6186n 
 -599.90678m  699.9999m   31.6186n 
 -599.80678m  699.9999m   31.6186n 
 -599.70678m  699.9999m   31.6186n 
 -599.60678m  699.9999m   31.6186n 
 -599.50678m  699.9999m   31.6186n 
 -599.40678m  699.9999m   31.6186n 
 -599.30678m  699.9999m   31.6186n 
 -599.20678m  699.9999m   31.6186n 
 -599.10678m  699.9999m   31.6186n 
 -599.00678m  699.9999m   31.6186n 
 -598.90678m  699.9999m   31.6186n 
 -598.80678m  699.9999m   31.6186n 
 -598.70678m  699.9999m   31.6186n 
 -598.60678m  699.9999m   31.6186n 
 -598.50678m  699.9999m   31.6186n 
 -598.40678m  699.9999m   31.6186n 
 -598.30678m  699.9999m   31.6186n 
 -598.20678m  699.9999m   31.6186n 
 -598.10678m  699.9999m   31.6186n 
 -598.00678m  699.9999m   31.6186n 
 -597.90678m  699.9999m   31.6186n 
 -597.80678m  699.9999m   31.6186n 
 -597.70678m  699.9999m   31.6186n 
 -597.60678m  699.9999m   31.6186n 
 -597.50678m  699.9999m   31.6186n 
 -597.40678m  699.9999m   31.6186n 
 -597.30678m  699.9999m   31.6186n 
 -597.20678m  699.9999m   31.6186n 
 -597.10678m  699.9999m   31.6186n 
 -597.00678m  699.9999m   31.6186n 
 -596.90678m  699.9999m   31.6186n 
 -596.80678m  699.9999m   31.6186n 
 -596.70678m  699.9999m   31.6186n 
 -596.60678m  699.9999m   31.6186n 
 -596.50678m  699.9999m   31.6186n 
 -596.40678m  699.9999m   31.6186n 
 -596.30678m  699.9999m   31.6186n 
 -596.20678m  699.9999m   31.6186n 
 -596.10678m  699.9999m   31.6186n 
 -596.00678m  699.9999m   31.6186n 
 -595.90678m  699.9999m   31.6186n 
 -595.80678m  699.9999m   31.6186n 
 -595.70678m  699.9999m   31.6186n 
 -595.60678m  699.9999m   31.6186n 
 -595.50678m  699.9999m   31.6186n 
 -595.40678m  699.9999m   31.6186n 
 -595.30678m  699.9999m   31.6186n 
 -595.20678m  699.9999m   31.6186n 
 -595.10678m  699.9999m   31.6186n 
 -595.00678m  699.9999m   31.6186n 
 -594.90678m  699.9999m   31.6186n 
 -594.80678m  699.9999m   31.6186n 
 -594.70678m  699.9999m   31.6186n 
 -594.60678m  699.9999m   31.6186n 
 -594.50678m  699.9999m   31.6186n 
 -594.40678m  699.9999m   31.6186n 
 -594.30678m  699.9999m   31.6186n 
 -594.20678m  699.9999m   31.6186n 
 -594.10678m  699.9999m   31.6186n 
 -594.00678m  699.9999m   31.6186n 
 -593.90678m  699.9999m   31.6186n 
 -593.80678m  699.9999m   31.6186n 
 -593.70678m  699.9999m   31.6186n 
 -593.60678m  699.9999m   31.6186n 
 -593.50678m  699.9999m   31.6186n 
 -593.40678m  699.9999m   31.6186n 
 -593.30678m  699.9999m   31.6186n 
 -593.20678m  699.9999m   31.6186n 
 -593.10678m  699.9999m   31.6186n 
 -593.00678m  699.9999m   31.6186n 
 -592.90678m  699.9999m   31.6186n 
 -592.80678m  699.9999m   31.6186n 
 -592.70678m  699.9999m   31.6186n 
 -592.60678m  699.9999m   31.6186n 
 -592.50678m  699.9999m   31.6186n 
 -592.40678m  699.9999m   31.6186n 
 -592.30678m  699.9999m   31.6186n 
 -592.20678m  699.9999m   31.6186n 
 -592.10678m  699.9999m   31.6186n 
 -592.00678m  699.9999m   31.6186n 
 -591.90678m  699.9999m   31.6186n 
 -591.80678m  699.9999m   31.6186n 
 -591.70678m  699.9999m   31.6186n 
 -591.60678m  699.9999m   31.6186n 
 -591.50678m  699.9999m   31.6186n 
 -591.40678m  699.9999m   31.6186n 
 -591.30678m  699.9999m   31.6186n 
 -591.20678m  699.9999m   31.6186n 
 -591.10678m  699.9999m   31.6186n 
 -591.00678m  699.9999m   31.6186n 
 -590.90678m  699.9999m   31.6186n 
 -590.80678m  699.9999m   31.6186n 
 -590.70678m  699.9999m   31.6186n 
 -590.60678m  699.9999m   31.6186n 
 -590.50678m  699.9999m   31.6186n 
 -590.40678m  699.9999m   31.6186n 
 -590.30678m  699.9999m   31.6186n 
 -590.20678m  699.9999m   31.6186n 
 -590.10678m  699.9999m   31.6186n 
 -590.00678m  699.9999m   31.6186n 
 -589.90678m  699.9999m   31.6186n 
 -589.80678m  699.9999m   31.6186n 
 -589.70678m  699.9999m   31.6186n 
 -589.60678m  699.9999m   31.6186n 
 -589.50678m  699.9999m   31.6186n 
 -589.40678m  699.9999m   31.6186n 
 -589.30678m  699.9999m   31.6186n 
 -589.20678m  699.9999m   31.6186n 
 -589.10678m  699.9999m   31.6186n 
 -589.00678m  699.9999m   31.6186n 
 -588.90678m  699.9999m   31.6186n 
 -588.80678m  699.9999m   31.6186n 
 -588.70678m  699.9999m   31.6186n 
 -588.60678m  699.9999m   31.6186n 
 -588.50678m  699.9999m   31.6186n 
 -588.40678m  699.9999m   31.6186n 
 -588.30678m  699.9999m   31.6186n 
 -588.20678m  699.9999m   31.6186n 
 -588.10678m  699.9999m   31.6186n 
 -588.00678m  699.9999m   31.6186n 
 -587.90678m  699.9999m   31.6186n 
 -587.80678m  699.9999m   31.6186n 
 -587.70678m  699.9999m   31.6186n 
 -587.60678m  699.9999m   31.6186n 
 -587.50678m  699.9999m   31.6186n 
 -587.40678m  699.9999m   31.6186n 
 -587.30678m  699.9999m   31.6186n 
 -587.20678m  699.9999m   31.6186n 
 -587.10678m  699.9999m   31.6186n 
 -587.00678m  699.9999m   31.6186n 
 -586.90678m  699.9999m   31.6186n 
 -586.80678m  699.9999m   31.6186n 
 -586.70678m  699.9999m   31.6186n 
 -586.60678m  699.9999m   31.6186n 
 -586.50678m  699.9999m   31.6186n 
 -586.40678m  699.9999m   31.6186n 
 -586.30678m  699.9999m   31.6186n 
 -586.20678m  699.9999m   31.6186n 
 -586.10678m  699.9999m   31.6186n 
 -586.00678m  699.9999m   31.6186n 
 -585.90678m  699.9999m   31.6186n 
 -585.80678m  699.9999m   31.6186n 
 -585.70678m  699.9999m   31.6186n 
 -585.60678m  699.9999m   31.6186n 
 -585.50678m  699.9999m   31.6186n 
 -585.40678m  699.9999m   31.6186n 
 -585.30678m  699.9999m   31.6186n 
 -585.20678m  699.9999m   31.6186n 
 -585.10678m  699.9999m   31.6186n 
 -585.00678m  699.9999m   31.6186n 
 -584.90678m  699.9999m   31.6186n 
 -584.80678m  699.9999m   31.6186n 
 -584.70678m  699.9999m   31.6186n 
 -584.60678m  699.9999m   31.6186n 
 -584.50678m  699.9999m   31.6186n 
 -584.40678m  699.9999m   31.6186n 
 -584.30678m  699.9999m   31.6186n 
 -584.20678m  699.9999m   31.6186n 
 -584.10678m  699.9999m   31.6186n 
 -584.00678m  699.9999m   31.6186n 
 -583.90678m  699.9999m   31.6186n 
 -583.80678m  699.9999m   31.6186n 
 -583.70678m  699.9999m   31.6186n 
 -583.60678m  699.9999m   31.6186n 
 -583.50678m  699.9999m   31.6186n 
 -583.40678m  699.9999m   31.6186n 
 -583.30678m  699.9999m   31.6186n 
 -583.20678m  699.9999m   31.6186n 
 -583.10678m  699.9999m   31.6186n 
 -583.00678m  699.9999m   31.6186n 
 -582.90678m  699.9999m   31.6186n 
 -582.80678m  699.9999m   31.6186n 
 -582.70678m  699.9999m   31.6186n 
 -582.60678m  699.9999m   31.6186n 
 -582.50678m  699.9999m   31.6186n 
 -582.40678m  699.9999m   31.6186n 
 -582.30678m  699.9999m   31.6186n 
 -582.20678m  699.9999m   31.6186n 
 -582.10678m  699.9999m   31.6186n 
 -582.00678m  699.9999m   31.6186n 
 -581.90678m  699.9999m   31.6186n 
 -581.80678m  699.9999m   31.6186n 
 -581.70678m  699.9999m   31.6186n 
 -581.60678m  699.9999m   31.6186n 
 -581.50678m  699.9999m   31.6186n 
 -581.40678m  699.9999m   31.6186n 
 -581.30678m  699.9999m   31.6186n 
 -581.20678m  699.9999m   31.6186n 
 -581.10678m  699.9999m   31.6186n 
 -581.00678m  699.9999m   31.6186n 
 -580.90678m  699.9999m   31.6186n 
 -580.80678m  699.9999m   31.6186n 
 -580.70678m  699.9999m   31.6186n 
 -580.60678m  699.9999m   31.6186n 
 -580.50678m  699.9999m   31.6186n 
 -580.40678m  699.9999m   31.6186n 
 -580.30678m  699.9999m   31.6186n 
 -580.20678m  699.9999m   31.6186n 
 -580.10678m  699.9999m   31.6186n 
 -580.00678m  699.9999m   31.6186n 
 -579.90678m  699.9999m   31.6186n 
 -579.80678m  699.9999m   31.6186n 
 -579.70678m  699.9999m   31.6186n 
 -579.60678m  699.9999m   31.6186n 
 -579.50678m  699.9999m   31.6186n 
 -579.40678m  699.9999m   31.6186n 
 -579.30678m  699.9999m   31.6186n 
 -579.20678m  699.9999m   31.6186n 
 -579.10678m  699.9999m   31.6186n 
 -579.00678m  699.9999m   31.6186n 
 -578.90678m  699.9999m   31.6186n 
 -578.80678m  699.9999m   31.6186n 
 -578.70678m  699.9999m   31.6186n 
 -578.60678m  699.9999m   31.6186n 
 -578.50678m  699.9999m   31.6186n 
 -578.40678m  699.9999m   31.6186n 
 -578.30678m  699.9999m   31.6186n 
 -578.20678m  699.9999m   31.6186n 
 -578.10678m  699.9999m   31.6186n 
 -578.00678m  699.9999m   31.6186n 
 -577.90678m  699.9999m   31.6186n 
 -577.80678m  699.9999m   31.6186n 
 -577.70678m  699.9999m   31.6186n 
 -577.60678m  699.9999m   31.6186n 
 -577.50678m  699.9999m   31.6186n 
 -577.40678m  699.9999m   31.6186n 
 -577.30678m  699.9999m   31.6186n 
 -577.20678m  699.9999m   31.6186n 
 -577.10678m  699.9999m   31.6186n 
 -577.00678m  699.9999m   31.6186n 
 -576.90678m  699.9999m   31.6186n 
 -576.80678m  699.9999m   31.6186n 
 -576.70678m  699.9999m   31.6186n 
 -576.60678m  699.9999m   31.6186n 
 -576.50678m  699.9999m   31.6186n 
 -576.40678m  699.9999m   31.6186n 
 -576.30678m  699.9999m   31.6186n 
 -576.20678m  699.9999m   31.6186n 
 -576.10678m  699.9999m   31.6186n 
 -576.00678m  699.9999m   31.6186n 
 -575.90678m  699.9999m   31.6186n 
 -575.80678m  699.9999m   31.6186n 
 -575.70678m  699.9999m   31.6186n 
 -575.60678m  699.9999m   31.6186n 
 -575.50678m  699.9999m   31.6186n 
 -575.40678m  699.9999m   31.6186n 
 -575.30678m  699.9999m   31.6186n 
 -575.20678m  699.9999m   31.6186n 
 -575.10678m  699.9999m   31.6186n 
 -575.00678m  699.9999m   31.6186n 
 -574.90678m  699.9999m   31.6186n 
 -574.80678m  699.9999m   31.6186n 
 -574.70678m  699.9999m   31.6186n 
 -574.60678m  699.9999m   31.6186n 
 -574.50678m  699.9999m   31.6186n 
 -574.40678m  699.9999m   31.6186n 
 -574.30678m  699.9999m   31.6186n 
 -574.20678m  699.9999m   31.6186n 
 -574.10678m  699.9999m   31.6186n 
 -574.00678m  699.9999m   31.6186n 
 -573.90678m  699.9999m   31.6186n 
 -573.80678m  699.9999m   31.6186n 
 -573.70678m  699.9999m   31.6186n 
 -573.60678m  699.9999m   31.6186n 
 -573.50678m  699.9999m   31.6186n 
 -573.40678m  699.9999m   31.6186n 
 -573.30678m  699.9999m   31.6186n 
 -573.20678m  699.9999m   31.6186n 
 -573.10678m  699.9999m   31.6186n 
 -573.00678m  699.9999m   31.6186n 
 -572.90678m  699.9999m   31.6186n 
 -572.80678m  699.9999m   31.6186n 
 -572.70678m  699.9999m   31.6186n 
 -572.60678m  699.9999m   31.6186n 
 -572.50678m  699.9999m   31.6186n 
 -572.40678m  699.9999m   31.6186n 
 -572.30678m  699.9999m   31.6186n 
 -572.20678m  699.9999m   31.6186n 
 -572.10678m  699.9999m   31.6186n 
 -572.00678m  699.9999m   31.6186n 
 -571.90678m  699.9999m   31.6186n 
 -571.80678m  699.9999m   31.6186n 
 -571.70678m  699.9999m   31.6186n 
 -571.60678m  699.9999m   31.6186n 
 -571.50678m  699.9999m   31.6186n 
 -571.40678m  699.9999m   31.6186n 
 -571.30678m  699.9999m   31.6186n 
 -571.20678m  699.9999m   31.6186n 
 -571.10678m  699.9999m   31.6186n 
 -571.00678m  699.9999m   31.6186n 
 -570.90678m  699.9999m   31.6186n 
 -570.80678m  699.9999m   31.6186n 
 -570.70678m  699.9999m   31.6186n 
 -570.60678m  699.9999m   31.6186n 
 -570.50678m  699.9999m   31.6186n 
 -570.40678m  699.9999m   31.6186n 
 -570.30678m  699.9999m   31.6186n 
 -570.20678m  699.9999m   31.6186n 
 -570.10678m  699.9999m   31.6186n 
 -570.00678m  699.9999m   31.6186n 
 -569.90678m  699.9999m   31.6186n 
 -569.80678m  699.9999m   31.6186n 
 -569.70678m  699.9999m   31.6186n 
 -569.60678m  699.9999m   31.6186n 
 -569.50678m  699.9999m   31.6186n 
 -569.40678m  699.9999m   31.6186n 
 -569.30678m  699.9999m   31.6186n 
 -569.20678m  699.9999m   31.6186n 
 -569.10678m  699.9999m   31.6186n 
 -569.00678m  699.9999m   31.6186n 
 -568.90678m  699.9999m   31.6186n 
 -568.80678m  699.9999m   31.6186n 
 -568.70678m  699.9999m   31.6186n 
 -568.60678m  699.9999m   31.6186n 
 -568.50678m  699.9999m   31.6186n 
 -568.40678m  699.9999m   31.6186n 
 -568.30678m  699.9999m   31.6186n 
 -568.20678m  699.9999m   31.6186n 
 -568.10678m  699.9999m   31.6186n 
 -568.00678m  699.9999m   31.6186n 
 -567.90678m  699.9999m   31.6186n 
 -567.80678m  699.9999m   31.6186n 
 -567.70678m  699.9999m   31.6186n 
 -567.60678m  699.9999m   31.6186n 
 -567.50678m  699.9999m   31.6186n 
 -567.40678m  699.9999m   31.6186n 
 -567.30678m  699.9999m   31.6186n 
 -567.20678m  699.9999m   31.6186n 
 -567.10678m  699.9999m   31.6186n 
 -567.00678m  699.9999m   31.6186n 
 -566.90678m  699.9999m   31.6186n 
 -566.80678m  699.9999m   31.6186n 
 -566.70678m  699.9999m   31.6186n 
 -566.60678m  699.9999m   31.6186n 
 -566.50678m  699.9999m   31.6186n 
 -566.40678m  699.9999m   31.6186n 
 -566.30678m  699.9999m   31.6186n 
 -566.20678m  699.9999m   31.6186n 
 -566.10678m  699.9999m   31.6186n 
 -566.00678m  699.9999m   31.6186n 
 -565.90678m  699.9999m   31.6186n 
 -565.80678m  699.9999m   31.6186n 
 -565.70678m  699.9999m   31.6186n 
 -565.60678m  699.9999m   31.6186n 
 -565.50678m  699.9999m   31.6186n 
 -565.40678m  699.9999m   31.6186n 
 -565.30678m  699.9999m   31.6186n 
 -565.20678m  699.9999m   31.6186n 
 -565.10678m  699.9999m   31.6186n 
 -565.00678m  699.9999m   31.6186n 
 -564.90678m  699.9999m   31.6186n 
 -564.80678m  699.9999m   31.6186n 
 -564.70678m  699.9999m   31.6186n 
 -564.60678m  699.9999m   31.6186n 
 -564.50678m  699.9999m   31.6186n 
 -564.40678m  699.9999m   31.6186n 
 -564.30678m  699.9999m   31.6186n 
 -564.20678m  699.9999m   31.6186n 
 -564.10678m  699.9999m   31.6186n 
 -564.00678m  699.9999m   31.6186n 
 -563.90678m  699.9999m   31.6186n 
 -563.80678m  699.9999m   31.6186n 
 -563.70678m  699.9999m   31.6186n 
 -563.60678m  699.9999m   31.6186n 
 -563.50678m  699.9999m   31.6186n 
 -563.40678m  699.9999m   31.6186n 
 -563.30678m  699.9999m   31.6186n 
 -563.20678m  699.9999m   31.6186n 
 -563.10678m  699.9999m   31.6186n 
 -563.00678m  699.9999m   31.6186n 
 -562.90678m  699.9999m   31.6186n 
 -562.80678m  699.9999m   31.6186n 
 -562.70678m  699.9999m   31.6186n 
 -562.60678m  699.9999m   31.6186n 
 -562.50678m  699.9999m   31.6186n 
 -562.40678m  699.9999m   31.6186n 
 -562.30678m  699.9999m   31.6186n 
 -562.20678m  699.9999m   31.6186n 
 -562.10678m  699.9999m   31.6186n 
 -562.00678m  699.9999m   31.6186n 
 -561.90678m  699.9999m   31.6186n 
 -561.80678m  699.9999m   31.6186n 
 -561.70678m  699.9999m   31.6186n 
 -561.60678m  699.9999m   31.6186n 
 -561.50678m  699.9999m   31.6186n 
 -561.40678m  699.9999m   31.6186n 
 -561.30678m  699.9999m   31.6186n 
 -561.20678m  699.9999m   31.6186n 
 -561.10678m  699.9999m   31.6186n 
 -561.00678m  699.9999m   31.6186n 
 -560.90678m  699.9999m   31.6186n 
 -560.80678m  699.9999m   31.6186n 
 -560.70678m  699.9999m   31.6186n 
 -560.60678m  699.9999m   31.6186n 
 -560.50678m  699.9999m   31.6186n 
 -560.40678m  699.9999m   31.6186n 
 -560.30678m  699.9999m   31.6186n 
 -560.20678m  699.9999m   31.6186n 
 -560.10678m  699.9999m   31.6186n 
 -560.00678m  699.9999m   31.6186n 
 -559.90678m  699.9999m   31.6186n 
 -559.80678m  699.9999m   31.6186n 
 -559.70678m  699.9999m   31.6186n 
 -559.60678m  699.9999m   31.6186n 
 -559.50678m  699.9999m   31.6186n 
 -559.40678m  699.9999m   31.6186n 
 -559.30678m  699.9999m   31.6186n 
 -559.20678m  699.9999m   31.6186n 
 -559.10678m  699.9999m   31.6186n 
 -559.00678m  699.9999m   31.6186n 
 -558.90678m  699.9999m   31.6186n 
 -558.80678m  699.9999m   31.6186n 
 -558.70678m  699.9999m   31.6186n 
 -558.60678m  699.9999m   31.6186n 
 -558.50678m  699.9999m   31.6186n 
 -558.40678m  699.9999m   31.6186n 
 -558.30678m  699.9999m   31.6186n 
 -558.20678m  699.9999m   31.6186n 
 -558.10678m  699.9999m   31.6186n 
 -558.00678m  699.9999m   31.6186n 
 -557.90678m  699.9999m   31.6186n 
 -557.80678m  699.9999m   31.6186n 
 -557.70678m  699.9999m   31.6186n 
 -557.60678m  699.9999m   31.6186n 
 -557.50678m  699.9999m   31.6186n 
 -557.40678m  699.9999m   31.6186n 
 -557.30678m  699.9999m   31.6186n 
 -557.20678m  699.9999m   31.6186n 
 -557.10678m  699.9999m   31.6186n 
 -557.00678m  699.9999m   31.6186n 
 -556.90678m  699.9999m   31.6186n 
 -556.80678m  699.9999m   31.6186n 
 -556.70678m  699.9999m   31.6186n 
 -556.60678m  699.9999m   31.6186n 
 -556.50678m  699.9999m   31.6186n 
 -556.40678m  699.9999m   31.6186n 
 -556.30678m  699.9999m   31.6186n 
 -556.20678m  699.9999m   31.6186n 
 -556.10678m  699.9999m   31.6186n 
 -556.00678m  699.9999m   31.6186n 
 -555.90678m  699.9999m   31.6186n 
 -555.80678m  699.9999m   31.6186n 
 -555.70678m  699.9999m   31.6186n 
 -555.60678m  699.9999m   31.6186n 
 -555.50678m  699.9999m   31.6186n 
 -555.40678m  699.9999m   31.6186n 
 -555.30678m  699.9999m   31.6186n 
 -555.20678m  699.9999m   31.6186n 
 -555.10678m  699.9999m   31.6186n 
 -555.00678m  699.9999m   31.6186n 
 -554.90678m  699.9999m   31.6186n 
 -554.80678m  699.9999m   31.6186n 
 -554.70678m  699.9999m   31.6186n 
 -554.60678m  699.9999m   31.6186n 
 -554.50678m  699.9999m   31.6186n 
 -554.40678m  699.9999m   31.6186n 
 -554.30678m  699.9999m   31.6186n 
 -554.20678m  699.9999m   31.6186n 
 -554.10678m  699.9999m   31.6186n 
 -554.00678m  699.9999m   31.6186n 
 -553.90678m  699.9999m   31.6186n 
 -553.80678m  699.9999m   31.6186n 
 -553.70678m  699.9999m   31.6186n 
 -553.60678m  699.9999m   31.6186n 
 -553.50678m  699.9999m   31.6186n 
 -553.40678m  699.9999m   31.6186n 
 -553.30678m  699.9999m   31.6186n 
 -553.20678m  699.9999m   31.6186n 
 -553.10678m  699.9999m   31.6186n 
 -553.00678m  699.9999m   31.6186n 
 -552.90678m  699.9999m   31.6186n 
 -552.80678m  699.9999m   31.6186n 
 -552.70678m  699.9999m   31.6186n 
 -552.60678m  699.9999m   31.6186n 
 -552.50678m  699.9999m   31.6186n 
 -552.40678m  699.9999m   31.6186n 
 -552.30678m  699.9999m   31.6186n 
 -552.20678m  699.9999m   31.6186n 
 -552.10678m  699.9999m   31.6186n 
 -552.00678m  699.9999m   31.6186n 
 -551.90678m  699.9999m   31.6186n 
 -551.80678m  699.9999m   31.6186n 
 -551.70678m  699.9999m   31.6186n 
 -551.60678m  699.9999m   31.6186n 
 -551.50678m  699.9999m   31.6186n 
 -551.40678m  699.9999m   31.6186n 
 -551.30678m  699.9999m   31.6186n 
 -551.20678m  699.9999m   31.6186n 
 -551.10678m  699.9999m   31.6186n 
 -551.00678m  699.9999m   31.6186n 
 -550.90678m  699.9999m   31.6186n 
 -550.80678m  699.9999m   31.6186n 
 -550.70678m  699.9999m   31.6186n 
 -550.60678m  699.9999m   31.6186n 
 -550.50678m  699.9999m   31.6186n 
 -550.40678m  699.9999m   31.6186n 
 -550.30678m  699.9999m   31.6186n 
 -550.20678m  699.9999m   31.6186n 
 -550.10678m  699.9999m   31.6186n 
 -550.00678m  699.9999m   31.6186n 
 -549.90678m  699.9999m   31.6186n 
 -549.80678m  699.9999m   31.6186n 
 -549.70678m  699.9999m   31.6186n 
 -549.60678m  699.9999m   31.6186n 
 -549.50678m  699.9999m   31.6186n 
 -549.40678m  699.9999m   31.6186n 
 -549.30678m  699.9999m   31.6186n 
 -549.20678m  699.9999m   31.6186n 
 -549.10678m  699.9999m   31.6186n 
 -549.00678m  699.9999m   31.6186n 
 -548.90678m  699.9999m   31.6186n 
 -548.80678m  699.9999m   31.6186n 
 -548.70678m  699.9999m   31.6186n 
 -548.60678m  699.9999m   31.6186n 
 -548.50678m  699.9999m   31.6186n 
 -548.40678m  699.9999m   31.6186n 
 -548.30678m  699.9999m   31.6186n 
 -548.20678m  699.9999m   31.6186n 
 -548.10678m  699.9999m   31.6186n 
 -548.00678m  699.9999m   31.6186n 
 -547.90678m  699.9999m   31.6186n 
 -547.80678m  699.9999m   31.6186n 
 -547.70678m  699.9999m   31.6186n 
 -547.60678m  699.9999m   31.6186n 
 -547.50678m  699.9999m   31.6186n 
 -547.40678m  699.9999m   31.6186n 
 -547.30678m  699.9999m   31.6186n 
 -547.20678m  699.9999m   31.6186n 
 -547.10678m  699.9999m   31.6186n 
 -547.00678m  699.9999m   31.6186n 
 -546.90678m  699.9999m   31.6186n 
 -546.80678m  699.9999m   31.6186n 
 -546.70678m  699.9999m   31.6186n 
 -546.60678m  699.9999m   31.6186n 
 -546.50678m  699.9999m   31.6186n 
 -546.40678m  699.9999m   31.6186n 
 -546.30678m  699.9999m   31.6186n 
 -546.20678m  699.9999m   31.6186n 
 -546.10678m  699.9999m   31.6186n 
 -546.00678m  699.9999m   31.6186n 
 -545.90678m  699.9999m   31.6186n 
 -545.80678m  699.9999m   31.6186n 
 -545.70678m  699.9999m   31.6186n 
 -545.60678m  699.9999m   31.6186n 
 -545.50678m  699.9999m   31.6186n 
 -545.40678m  699.9999m   31.6186n 
 -545.30678m  699.9999m   31.6186n 
 -545.20678m  699.9999m   31.6186n 
 -545.10678m  699.9999m   31.6186n 
 -545.00678m  699.9999m   31.6186n 
 -544.90678m  699.9999m   31.6186n 
 -544.80678m  699.9999m   31.6186n 
 -544.70678m  699.9999m   31.6186n 
 -544.60678m  699.9999m   31.6186n 
 -544.50678m  699.9999m   31.6186n 
 -544.40678m  699.9999m   31.6186n 
 -544.30678m  699.9999m   31.6186n 
 -544.20678m  699.9999m   31.6186n 
 -544.10678m  699.9999m   31.6186n 
 -544.00678m  699.9999m   31.6186n 
 -543.90678m  699.9999m   31.6186n 
 -543.80678m  699.9999m   31.6186n 
 -543.70678m  699.9999m   31.6186n 
 -543.60678m  699.9999m   31.6186n 
 -543.50678m  699.9999m   31.6186n 
 -543.40678m  699.9999m   31.6186n 
 -543.30678m  699.9999m   31.6186n 
 -543.20678m  699.9999m   31.6186n 
 -543.10678m  699.9999m   31.6186n 
 -543.00678m  699.9999m   31.6186n 
 -542.90678m  699.9999m   31.6186n 
 -542.80678m  699.9999m   31.6186n 
 -542.70678m  699.9999m   31.6186n 
 -542.60678m  699.9999m   31.6186n 
 -542.50678m  699.9999m   31.6186n 
 -542.40678m  699.9999m   31.6186n 
 -542.30678m  699.9999m   31.6186n 
 -542.20678m  699.9999m   31.6186n 
 -542.10678m  699.9999m   31.6186n 
 -542.00678m  699.9999m   31.6186n 
 -541.90678m  699.9999m   31.6186n 
 -541.80678m  699.9999m   31.6186n 
 -541.70678m  699.9999m   31.6186n 
 -541.60678m  699.9999m   31.6186n 
 -541.50678m  699.9999m   31.6186n 
 -541.40678m  699.9999m   31.6186n 
 -541.30678m  699.9999m   31.6186n 
 -541.20678m  699.9999m   31.6186n 
 -541.10678m  699.9999m   31.6186n 
 -541.00678m  699.9999m   31.6186n 
 -540.90678m  699.9999m   31.6186n 
 -540.80678m  699.9999m   31.6186n 
 -540.70678m  699.9999m   31.6186n 
 -540.60678m  699.9999m   31.6186n 
 -540.50678m  699.9999m   31.6186n 
 -540.40678m  699.9999m   31.6186n 
 -540.30678m  699.9999m   31.6186n 
 -540.20678m  699.9999m   31.6186n 
 -540.10678m  699.9999m   31.6186n 
 -540.00678m  699.9999m   31.6186n 
 -539.90678m  699.9999m   31.6186n 
 -539.80678m  699.9999m   31.6186n 
 -539.70678m  699.9999m   31.6186n 
 -539.60678m  699.9999m   31.6186n 
 -539.50678m  699.9999m   31.6186n 
 -539.40678m  699.9999m   31.6186n 
 -539.30678m  699.9999m   31.6186n 
 -539.20678m  699.9999m   31.6186n 
 -539.10678m  699.9999m   31.6186n 
 -539.00678m  699.9999m   31.6186n 
 -538.90678m  699.9999m   31.6186n 
 -538.80678m  699.9999m   31.6186n 
 -538.70678m  699.9999m   31.6186n 
 -538.60678m  699.9999m   31.6186n 
 -538.50678m  699.9999m   31.6186n 
 -538.40678m  699.9999m   31.6186n 
 -538.30678m  699.9999m   31.6186n 
 -538.20678m  699.9999m   31.6186n 
 -538.10678m  699.9999m   31.6186n 
 -538.00678m  699.9999m   31.6186n 
 -537.90678m  699.9999m   31.6186n 
 -537.80678m  699.9999m   31.6186n 
 -537.70678m  699.9999m   31.6186n 
 -537.60678m  699.9999m   31.6186n 
 -537.50678m  699.9999m   31.6186n 
 -537.40678m  699.9999m   31.6186n 
 -537.30678m  699.9999m   31.6186n 
 -537.20678m  699.9999m   31.6186n 
 -537.10678m  699.9999m   31.6186n 
 -537.00678m  699.9999m   31.6186n 
 -536.90678m  699.9999m   31.6186n 
 -536.80678m  699.9999m   31.6186n 
 -536.70678m  699.9999m   31.6186n 
 -536.60678m  699.9999m   31.6186n 
 -536.50678m  699.9999m   31.6186n 
 -536.40678m  699.9999m   31.6186n 
 -536.30678m  699.9999m   31.6186n 
 -536.20678m  699.9999m   31.6186n 
 -536.10678m  699.9999m   31.6186n 
 -536.00678m  699.9999m   31.6186n 
 -535.90678m  699.9999m   31.6186n 
 -535.80678m  699.9999m   31.6186n 
 -535.70678m  699.9999m   31.6186n 
 -535.60678m  699.9999m   31.6186n 
 -535.50678m  699.9999m   31.6186n 
 -535.40678m  699.9999m   31.6186n 
 -535.30678m  699.9999m   31.6186n 
 -535.20678m  699.9999m   31.6186n 
 -535.10678m  699.9999m   31.6186n 
 -535.00678m  699.9999m   31.6186n 
 -534.90678m  699.9999m   31.6186n 
 -534.80678m  699.9999m   31.6186n 
 -534.70678m  699.9999m   31.6186n 
 -534.60678m  699.9999m   31.6186n 
 -534.50678m  699.9999m   31.6186n 
 -534.40678m  699.9999m   31.6186n 
 -534.30678m  699.9999m   31.6186n 
 -534.20678m  699.9999m   31.6186n 
 -534.10678m  699.9999m   31.6186n 
 -534.00678m  699.9999m   31.6186n 
 -533.90678m  699.9999m   31.6186n 
 -533.80678m  699.9999m   31.6186n 
 -533.70678m  699.9999m   31.6186n 
 -533.60678m  699.9999m   31.6186n 
 -533.50678m  699.9999m   31.6186n 
 -533.40678m  699.9999m   31.6186n 
 -533.30678m  699.9999m   31.6186n 
 -533.20678m  699.9999m   31.6186n 
 -533.10678m  699.9999m   31.6186n 
 -533.00678m  699.9999m   31.6186n 
 -532.90678m  699.9999m   31.6186n 
 -532.80678m  699.9999m   31.6186n 
 -532.70678m  699.9999m   31.6186n 
 -532.60678m  699.9999m   31.6186n 
 -532.50678m  699.9999m   31.6186n 
 -532.40678m  699.9999m   31.6186n 
 -532.30678m  699.9999m   31.6186n 
 -532.20678m  699.9999m   31.6186n 
 -532.10678m  699.9999m   31.6186n 
 -532.00678m  699.9999m   31.6186n 
 -531.90678m  699.9999m   31.6186n 
 -531.80678m  699.9999m   31.6186n 
 -531.70678m  699.9999m   31.6186n 
 -531.60678m  699.9999m   31.6186n 
 -531.50678m  699.9999m   31.6186n 
 -531.40678m  699.9999m   31.6186n 
 -531.30678m  699.9999m   31.6186n 
 -531.20678m  699.9999m   31.6186n 
 -531.10678m  699.9999m   31.6186n 
 -531.00678m  699.9999m   31.6186n 
 -530.90678m  699.9999m   31.6186n 
 -530.80678m  699.9999m   31.6186n 
 -530.70678m  699.9999m   31.6186n 
 -530.60678m  699.9999m   31.6186n 
 -530.50678m  699.9999m   31.6186n 
 -530.40678m  699.9999m   31.6186n 
 -530.30678m  699.9999m   31.6186n 
 -530.20678m  699.9999m   31.6186n 
 -530.10678m  699.9999m   31.6186n 
 -530.00678m  699.9999m   31.6186n 
 -529.90678m  699.9999m   31.6186n 
 -529.80678m  699.9999m   31.6186n 
 -529.70678m  699.9999m   31.6186n 
 -529.60678m  699.9999m   31.6186n 
 -529.50678m  699.9999m   31.6186n 
 -529.40678m  699.9999m   31.6186n 
 -529.30678m  699.9999m   31.6186n 
 -529.20678m  699.9999m   31.6186n 
 -529.10678m  699.9999m   31.6186n 
 -529.00678m  699.9999m   31.6186n 
 -528.90678m  699.9999m   31.6186n 
 -528.80678m  699.9999m   31.6186n 
 -528.70678m  699.9999m   31.6186n 
 -528.60678m  699.9999m   31.6186n 
 -528.50678m  699.9999m   31.6186n 
 -528.40678m  699.9999m   31.6186n 
 -528.30678m  699.9999m   31.6186n 
 -528.20678m  699.9999m   31.6186n 
 -528.10678m  699.9999m   31.6186n 
 -528.00678m  699.9999m   31.6186n 
 -527.90678m  699.9999m   31.6186n 
 -527.80678m  699.9999m   31.6186n 
 -527.70678m  699.9999m   31.6186n 
 -527.60678m  699.9999m   31.6186n 
 -527.50678m  699.9999m   31.6186n 
 -527.40678m  699.9999m   31.6186n 
 -527.30678m  699.9999m   31.6186n 
 -527.20678m  699.9999m   31.6186n 
 -527.10678m  699.9999m   31.6186n 
 -527.00678m  699.9999m   31.6186n 
 -526.90678m  699.9999m   31.6186n 
 -526.80678m  699.9999m   31.6186n 
 -526.70678m  699.9999m   31.6186n 
 -526.60678m  699.9999m   31.6186n 
 -526.50678m  699.9999m   31.6186n 
 -526.40678m  699.9999m   31.6186n 
 -526.30678m  699.9999m   31.6186n 
 -526.20678m  699.9999m   31.6186n 
 -526.10678m  699.9999m   31.6186n 
 -526.00678m  699.9999m   31.6186n 
 -525.90678m  699.9999m   31.6186n 
 -525.80678m  699.9999m   31.6186n 
 -525.70678m  699.9999m   31.6186n 
 -525.60678m  699.9999m   31.6186n 
 -525.50678m  699.9999m   31.6186n 
 -525.40678m  699.9999m   31.6186n 
 -525.30678m  699.9999m   31.6186n 
 -525.20678m  699.9999m   31.6186n 
 -525.10678m  699.9999m   31.6186n 
 -525.00678m  699.9999m   31.6186n 
 -524.90678m  699.9999m   31.6186n 
 -524.80678m  699.9999m   31.6186n 
 -524.70678m  699.9999m   31.6186n 
 -524.60678m  699.9999m   31.6186n 
 -524.50678m  699.9999m   31.6186n 
 -524.40678m  699.9999m   31.6186n 
 -524.30678m  699.9999m   31.6186n 
 -524.20678m  699.9999m   31.6186n 
 -524.10678m  699.9999m   31.6186n 
 -524.00678m  699.9999m   31.6186n 
 -523.90678m  699.9999m   31.6186n 
 -523.80678m  699.9999m   31.6186n 
 -523.70678m  699.9999m   31.6186n 
 -523.60678m  699.9999m   31.6186n 
 -523.50678m  699.9999m   31.6186n 
 -523.40678m  699.9999m   31.6186n 
 -523.30678m  699.9999m   31.6186n 
 -523.20678m  699.9999m   31.6186n 
 -523.10678m  699.9999m   31.6186n 
 -523.00678m  699.9999m   31.6186n 
 -522.90678m  699.9999m   31.6186n 
 -522.80678m  699.9999m   31.6186n 
 -522.70678m  699.9999m   31.6186n 
 -522.60678m  699.9999m   31.6186n 
 -522.50678m  699.9999m   31.6186n 
 -522.40678m  699.9999m   31.6186n 
 -522.30678m  699.9999m   31.6186n 
 -522.20678m  699.9999m   31.6186n 
 -522.10678m  699.9999m   31.6186n 
 -522.00678m  699.9999m   31.6186n 
 -521.90678m  699.9999m   31.6186n 
 -521.80678m  699.9999m   31.6186n 
 -521.70678m  699.9999m   31.6186n 
 -521.60678m  699.9999m   31.6186n 
 -521.50678m  699.9999m   31.6186n 
 -521.40678m  699.9999m   31.6186n 
 -521.30678m  699.9999m   31.6186n 
 -521.20678m  699.9999m   31.6186n 
 -521.10678m  699.9999m   31.6186n 
 -521.00678m  699.9999m   31.6186n 
 -520.90678m  699.9999m   31.6186n 
 -520.80678m  699.9999m   31.6186n 
 -520.70678m  699.9999m   31.6186n 
 -520.60678m  699.9999m   31.6186n 
 -520.50678m  699.9999m   31.6186n 
 -520.40678m  699.9999m   31.6186n 
 -520.30678m  699.9999m   31.6186n 
 -520.20678m  699.9999m   31.6186n 
 -520.10678m  699.9999m   31.6186n 
 -520.00678m  699.9999m   31.6186n 
 -519.90678m  699.9999m   31.6186n 
 -519.80678m  699.9999m   31.6186n 
 -519.70678m  699.9999m   31.6186n 
 -519.60678m  699.9999m   31.6186n 
 -519.50678m  699.9999m   31.6186n 
 -519.40678m  699.9999m   31.6186n 
 -519.30678m  699.9999m   31.6186n 
 -519.20678m  699.9999m   31.6186n 
 -519.10678m  699.9999m   31.6186n 
 -519.00678m  699.9999m   31.6186n 
 -518.90678m  699.9999m   31.6186n 
 -518.80678m  699.9999m   31.6186n 
 -518.70678m  699.9999m   31.6186n 
 -518.60678m  699.9999m   31.6186n 
 -518.50678m  699.9999m   31.6186n 
 -518.40678m  699.9999m   31.6186n 
 -518.30678m  699.9999m   31.6186n 
 -518.20678m  699.9999m   31.6186n 
 -518.10678m  699.9999m   31.6186n 
 -518.00678m  699.9999m   31.6186n 
 -517.90678m  699.9999m   31.6186n 
 -517.80678m  699.9999m   31.6186n 
 -517.70678m  699.9999m   31.6186n 
 -517.60678m  699.9999m   31.6186n 
 -517.50678m  699.9999m   31.6186n 
 -517.40678m  699.9999m   31.6186n 
 -517.30678m  699.9999m   31.6186n 
 -517.20678m  699.9999m   31.6186n 
 -517.10678m  699.9999m   31.6186n 
 -517.00678m  699.9999m   31.6186n 
 -516.90678m  699.9999m   31.6186n 
 -516.80678m  699.9999m   31.6186n 
 -516.70678m  699.9999m   31.6186n 
 -516.60678m  699.9999m   31.6186n 
 -516.50678m  699.9999m   31.6186n 
 -516.40678m  699.9999m   31.6186n 
 -516.30678m  699.9999m   31.6186n 
 -516.20678m  699.9999m   31.6186n 
 -516.10678m  699.9999m   31.6186n 
 -516.00678m  699.9999m   31.6186n 
 -515.90678m  699.9999m   31.6186n 
 -515.80678m  699.9999m   31.6186n 
 -515.70678m  699.9999m   31.6186n 
 -515.60678m  699.9999m   31.6186n 
 -515.50678m  699.9999m   31.6186n 
 -515.40678m  699.9999m   31.6186n 
 -515.30678m  699.9999m   31.6186n 
 -515.20678m  699.9999m   31.6186n 
 -515.10678m  699.9999m   31.6186n 
 -515.00678m  699.9999m   31.6186n 
 -514.90678m  699.9999m   31.6186n 
 -514.80678m  699.9999m   31.6186n 
 -514.70678m  699.9999m   31.6186n 
 -514.60678m  699.9999m   31.6186n 
 -514.50678m  699.9999m   31.6186n 
 -514.40678m  699.9999m   31.6186n 
 -514.30678m  699.9999m   31.6186n 
 -514.20678m  699.9999m   31.6186n 
 -514.10678m  699.9999m   31.6186n 
 -514.00678m  699.9999m   31.6186n 
 -513.90678m  699.9999m   31.6186n 
 -513.80678m  699.9999m   31.6186n 
 -513.70678m  699.9999m   31.6186n 
 -513.60678m  699.9999m   31.6186n 
 -513.50678m  699.9999m   31.6186n 
 -513.40678m  699.9999m   31.6186n 
 -513.30678m  699.9999m   31.6186n 
 -513.20678m  699.9999m   31.6186n 
 -513.10678m  699.9999m   31.6186n 
 -513.00678m  699.9999m   31.6186n 
 -512.90678m  699.9999m   31.6186n 
 -512.80678m  699.9999m   31.6186n 
 -512.70678m  699.9999m   31.6186n 
 -512.60678m  699.9999m   31.6186n 
 -512.50678m  699.9999m   31.6186n 
 -512.40678m  699.9999m   31.6186n 
 -512.30678m  699.9999m   31.6186n 
 -512.20678m  699.9999m   31.6186n 
 -512.10678m  699.9999m   31.6186n 
 -512.00678m  699.9999m   31.6186n 
 -511.90678m  699.9999m   31.6186n 
 -511.80678m  699.9999m   31.6186n 
 -511.70678m  699.9999m   31.6186n 
 -511.60678m  699.9999m   31.6186n 
 -511.50678m  699.9999m   31.6186n 
 -511.40678m  699.9999m   31.6186n 
 -511.30678m  699.9999m   31.6186n 
 -511.20678m  699.9999m   31.6186n 
 -511.10678m  699.9999m   31.6186n 
 -511.00678m  699.9999m   31.6186n 
 -510.90678m  699.9999m   31.6186n 
 -510.80678m  699.9999m   31.6186n 
 -510.70678m  699.9999m   31.6186n 
 -510.60678m  699.9999m   31.6186n 
 -510.50678m  699.9999m   31.6186n 
 -510.40678m  699.9999m   31.6186n 
 -510.30678m  699.9999m   31.6186n 
 -510.20678m  699.9999m   31.6186n 
 -510.10678m  699.9999m   31.6186n 
 -510.00678m  699.9999m   31.6186n 
 -509.90678m  699.9999m   31.6186n 
 -509.80678m  699.9999m   31.6186n 
 -509.70678m  699.9999m   31.6186n 
 -509.60678m  699.9999m   31.6186n 
 -509.50678m  699.9999m   31.6186n 
 -509.40678m  699.9999m   31.6186n 
 -509.30678m  699.9999m   31.6186n 
 -509.20678m  699.9999m   31.6186n 
 -509.10678m  699.9999m   31.6186n 
 -509.00678m  699.9999m   31.6186n 
 -508.90678m  699.9999m   31.6186n 
 -508.80678m  699.9999m   31.6186n 
 -508.70678m  699.9999m   31.6186n 
 -508.60678m  699.9999m   31.6186n 
 -508.50678m  699.9999m   31.6186n 
 -508.40678m  699.9999m   31.6186n 
 -508.30678m  699.9999m   31.6186n 
 -508.20678m  699.9999m   31.6186n 
 -508.10678m  699.9999m   31.6186n 
 -508.00678m  699.9999m   31.6186n 
 -507.90678m  699.9999m   31.6186n 
 -507.80678m  699.9999m   31.6186n 
 -507.70678m  699.9999m   31.6186n 
 -507.60678m  699.9999m   31.6186n 
 -507.50678m  699.9999m   31.6186n 
 -507.40678m  699.9999m   31.6186n 
 -507.30678m  699.9999m   31.6186n 
 -507.20678m  699.9999m   31.6186n 
 -507.10678m  699.9999m   31.6186n 
 -507.00678m  699.9999m   31.6186n 
 -506.90678m  699.9999m   31.6186n 
 -506.80678m  699.9999m   31.6186n 
 -506.70678m  699.9999m   31.6186n 
 -506.60678m  699.9999m   31.6186n 
 -506.50678m  699.9999m   31.6186n 
 -506.40678m  699.9999m   31.6186n 
 -506.30678m  699.9999m   31.6186n 
 -506.20678m  699.9999m   31.6186n 
 -506.10678m  699.9999m   31.6186n 
 -506.00678m  699.9999m   31.6186n 
 -505.90678m  699.9999m   31.6186n 
 -505.80678m  699.9999m   31.6186n 
 -505.70678m  699.9999m   31.6186n 
 -505.60678m  699.9999m   31.6186n 
 -505.50678m  699.9999m   31.6186n 
 -505.40678m  699.9999m   31.6186n 
 -505.30678m  699.9999m   31.6186n 
 -505.20678m  699.9999m   31.6186n 
 -505.10678m  699.9999m   31.6186n 
 -505.00678m  699.9999m   31.6186n 
 -504.90678m  699.9999m   31.6186n 
 -504.80678m  699.9999m   31.6186n 
 -504.70678m  699.9999m   31.6186n 
 -504.60678m  699.9999m   31.6186n 
 -504.50678m  699.9999m   31.6186n 
 -504.40678m  699.9999m   31.6186n 
 -504.30678m  699.9999m   31.6186n 
 -504.20678m  699.9999m   31.6186n 
 -504.10678m  699.9999m   31.6186n 
 -504.00678m  699.9999m   31.6186n 
 -503.90678m  699.9999m   31.6186n 
 -503.80678m  699.9999m   31.6186n 
 -503.70678m  699.9999m   31.6186n 
 -503.60678m  699.9999m   31.6186n 
 -503.50678m  699.9999m   31.6186n 
 -503.40678m  699.9999m   31.6186n 
 -503.30678m  699.9999m   31.6186n 
 -503.20678m  699.9999m   31.6186n 
 -503.10678m  699.9999m   31.6186n 
 -503.00678m  699.9999m   31.6186n 
 -502.90678m  699.9999m   31.6186n 
 -502.80678m  699.9999m   31.6186n 
 -502.70678m  699.9999m   31.6186n 
 -502.60678m  699.9999m   31.6186n 
 -502.50678m  699.9999m   31.6186n 
 -502.40678m  699.9999m   31.6186n 
 -502.30678m  699.9999m   31.6186n 
 -502.20678m  699.9999m   31.6186n 
 -502.10678m  699.9999m   31.6186n 
 -502.00678m  699.9999m   31.6186n 
 -501.90678m  699.9999m   31.6186n 
 -501.80678m  699.9999m   31.6186n 
 -501.70678m  699.9999m   31.6186n 
 -501.60678m  699.9999m   31.6186n 
 -501.50678m  699.9999m   31.6186n 
 -501.40678m  699.9999m   31.6186n 
 -501.30678m  699.9999m   31.6186n 
 -501.20678m  699.9999m   31.6186n 
 -501.10678m  699.9999m   31.6186n 
 -501.00678m  699.9999m   31.6186n 
 -500.90678m  699.9999m   31.6186n 
 -500.80678m  699.9999m   31.6186n 
 -500.70678m  699.9999m   31.6186n 
 -500.60678m  699.9999m   31.6186n 
 -500.50678m  699.9999m   31.6186n 
 -500.40678m  699.9999m   31.6186n 
 -500.30678m  699.9999m   31.6186n 
 -500.20678m  699.9999m   31.6186n 
 -500.10678m  699.9999m   31.6186n 
 -500.00678m  699.9999m   31.6186n 
 -499.90678m  699.9999m   31.6186n 
 -499.80678m  699.9999m   31.6186n 
 -499.70678m  699.9999m   31.6186n 
 -499.60678m  699.9999m   31.6186n 
 -499.50678m  699.9999m   31.6186n 
 -499.40678m  699.9999m   31.6186n 
 -499.30678m  699.9999m   31.6186n 
 -499.20678m  699.9999m   31.6186n 
 -499.10678m  699.9999m   31.6186n 
 -499.00678m  699.9999m   31.6186n 
 -498.90678m  699.9999m   31.6186n 
 -498.80678m  699.9999m   31.6186n 
 -498.70678m  699.9999m   31.6186n 
 -498.60678m  699.9999m   31.6186n 
 -498.50678m  699.9999m   31.6186n 
 -498.40678m  699.9999m   31.6186n 
 -498.30678m  699.9999m   31.6186n 
 -498.20678m  699.9999m   31.6186n 
 -498.10678m  699.9999m   31.6186n 
 -498.00678m  699.9999m   31.6186n 
 -497.90678m  699.9999m   31.6186n 
 -497.80678m  699.9999m   31.6186n 
 -497.70678m  699.9999m   31.6186n 
 -497.60678m  699.9999m   31.6186n 
 -497.50678m  699.9999m   31.6186n 
 -497.40678m  699.9999m   31.6186n 
 -497.30678m  699.9999m   31.6186n 
 -497.20678m  699.9999m   31.6186n 
 -497.10678m  699.9999m   31.6186n 
 -497.00678m  699.9999m   31.6186n 
 -496.90678m  699.9999m   31.6186n 
 -496.80678m  699.9999m   31.6186n 
 -496.70678m  699.9999m   31.6186n 
 -496.60678m  699.9999m   31.6186n 
 -496.50678m  699.9999m   31.6186n 
 -496.40678m  699.9999m   31.6186n 
 -496.30678m  699.9999m   31.6186n 
 -496.20678m  699.9999m   31.6186n 
 -496.10678m  699.9999m   31.6186n 
 -496.00678m  699.9999m   31.6186n 
 -495.90678m  699.9999m   31.6186n 
 -495.80678m  699.9999m   31.6186n 
 -495.70678m  699.9999m   31.6186n 
 -495.60678m  699.9999m   31.6186n 
 -495.50678m  699.9999m   31.6186n 
 -495.40678m  699.9999m   31.6186n 
 -495.30678m  699.9999m   31.6186n 
 -495.20678m  699.9999m   31.6186n 
 -495.10678m  699.9999m   31.6186n 
 -495.00678m  699.9999m   31.6186n 
 -494.90678m  699.9999m   31.6186n 
 -494.80678m  699.9999m   31.6186n 
 -494.70678m  699.9999m   31.6186n 
 -494.60678m  699.9999m   31.6186n 
 -494.50678m  699.9999m   31.6186n 
 -494.40678m  699.9999m   31.6186n 
 -494.30678m  699.9999m   31.6186n 
 -494.20678m  699.9999m   31.6186n 
 -494.10678m  699.9999m   31.6186n 
 -494.00678m  699.9999m   31.6186n 
 -493.90678m  699.9999m   31.6186n 
 -493.80678m  699.9999m   31.6186n 
 -493.70678m  699.9999m   31.6186n 
 -493.60678m  699.9999m   31.6186n 
 -493.50678m  699.9999m   31.6186n 
 -493.40678m  699.9999m   31.6186n 
 -493.30678m  699.9999m   31.6186n 
 -493.20678m  699.9999m   31.6186n 
 -493.10678m  699.9999m   31.6186n 
 -493.00678m  699.9999m   31.6186n 
 -492.90678m  699.9999m   31.6186n 
 -492.80678m  699.9999m   31.6186n 
 -492.70678m  699.9999m   31.6186n 
 -492.60678m  699.9999m   31.6186n 
 -492.50678m  699.9999m   31.6186n 
 -492.40678m  699.9999m   31.6186n 
 -492.30678m  699.9999m   31.6186n 
 -492.20678m  699.9999m   31.6186n 
 -492.10678m  699.9999m   31.6186n 
 -492.00678m  699.9999m   31.6186n 
 -491.90678m  699.9999m   31.6186n 
 -491.80678m  699.9999m   31.6186n 
 -491.70678m  699.9999m   31.6186n 
 -491.60678m  699.9999m   31.6186n 
 -491.50678m  699.9999m   31.6186n 
 -491.40678m  699.9999m   31.6186n 
 -491.30678m  699.9999m   31.6186n 
 -491.20678m  699.9999m   31.6186n 
 -491.10678m  699.9999m   31.6186n 
 -491.00678m  699.9999m   31.6186n 
 -490.90678m  699.9999m   31.6186n 
 -490.80678m  699.9999m   31.6186n 
 -490.70678m  699.9999m   31.6186n 
 -490.60678m  699.9999m   31.6186n 
 -490.50678m  699.9999m   31.6186n 
 -490.40678m  699.9999m   31.6186n 
 -490.30678m  699.9999m   31.6186n 
 -490.20678m  699.9999m   31.6186n 
 -490.10678m  699.9999m   31.6186n 
 -490.00678m  699.9999m   31.6186n 
[...]
  664.99322m  564.7188n  700.0000m 
  665.09322m  565.1115n  700.0000m 
  665.19322m  565.5044n  700.0000m 
  665.29322m  565.8978n  700.0000m 
  665.39322m  566.2915n  700.0000m 
  665.49322m  566.6855n  700.0000m 
  665.59322m  567.0799n  700.0000m 
  665.69322m  567.4747n  700.0000m 
  665.79322m  567.8698n  700.0000m 
  665.89322m  568.2653n  700.0000m 
  665.99322m  568.6611n  700.0000m 
  666.09322m  569.0573n  700.0000m 
  666.19322m  569.4539n  700.0000m 
  666.29322m  569.8508n  700.0000m 
  666.39322m  570.2481n  700.0000m 
  666.49322m  570.6457n  700.0000m 
  666.59322m  571.0437n  700.0000m 
  666.69322m  571.4421n  700.0000m 
  666.79322m  571.8408n  700.0000m 
  666.89322m  572.2399n  700.0000m 
  666.99322m  572.6394n  700.0000m 
  667.09322m  573.0392n  700.0000m 
  667.19322m  573.4394n  700.0000m 
  667.29322m  573.8399n  700.0000m 
  667.39322m  574.2408n  700.0000m 
  667.49322m  574.6421n  700.0000m 
  667.59322m  575.0438n  700.0000m 
  667.69322m  575.4458n  700.0000m 
  667.79322m  575.8481n  700.0000m 
  667.89322m  576.2509n  700.0000m 
  667.99322m  576.6540n  700.0000m 
  668.09322m  577.0575n  700.0000m 
  668.19322m  577.4613n  700.0000m 
  668.29322m  577.8655n  700.0000m 
  668.39322m  578.2701n  700.0000m 
  668.49322m  578.6750n  700.0000m 
  668.59322m  579.0804n  700.0000m 
  668.69322m  579.4860n  700.0000m 
  668.79322m  579.8921n  700.0000m 
  668.89322m  580.2985n  700.0000m 
  668.99322m  580.7053n  700.0000m 
  669.09322m  581.1125n  700.0000m 
  669.19322m  581.5200n  700.0000m 
  669.29322m  581.9279n  700.0000m 
  669.39322m  582.3362n  700.0000m 
  669.49322m  582.7449n  700.0000m 
  669.59322m  583.1539n  700.0000m 
  669.69322m  583.5633n  700.0000m 
  669.79322m  583.9731n  700.0000m 
  669.89322m  584.3832n  700.0000m 
  669.99322m  584.7938n  700.0000m 
  670.09322m  585.2047n  700.0000m 
  670.19322m  585.6159n  700.0000m 
  670.29322m  586.0276n  700.0000m 
  670.39322m  586.4396n  700.0000m 
  670.49322m  586.8520n  700.0000m 
  670.59322m  587.2648n  700.0000m 
  670.69322m  587.6780n  700.0000m 
  670.79322m  588.0915n  700.0000m 
  670.89322m  588.5054n  700.0000m 
  670.99322m  588.9197n  700.0000m 
  671.09322m  589.3344n  700.0000m 
  671.19322m  589.7494n  700.0000m 
  671.29322m  590.1649n  700.0000m 
  671.39322m  590.5807n  700.0000m 
  671.49322m  590.9969n  700.0000m 
  671.59322m  591.4134n  700.0000m 
  671.69322m  591.8304n  700.0000m 
  671.79322m  592.2477n  700.0000m 
  671.89322m  592.6654n  700.0000m 
  671.99322m  593.0835n  700.0000m 
  672.09322m  593.5020n  700.0000m 
  672.19322m  593.9209n  700.0000m 
  672.29322m  594.3401n  700.0000m 
  672.39322m  594.7598n  700.0000m 
  672.49322m  595.1798n  700.0000m 
  672.59322m  595.6002n  700.0000m 
  672.69322m  596.0210n  700.0000m 
  672.79322m  596.4422n  700.0000m 
  672.89322m  596.8637n  700.0000m 
  672.99322m  597.2857n  700.0000m 
  673.09322m  597.7080n  700.0000m 
  673.19322m  598.1307n  700.0000m 
  673.29322m  598.5538n  700.0000m 
  673.39322m  598.9773n  700.0000m 
  673.49322m  599.4012n  700.0000m 
  673.59322m  599.8255n  700.0000m 
  673.69322m  600.2501n  700.0000m 
  673.79322m  600.6752n  700.0000m 
  673.89322m  601.1006n  700.0000m 
  673.99322m  601.5265n  700.0000m 
  674.09322m  601.9527n  700.0000m 
  674.19322m  602.3793n  700.0000m 
  674.29322m  602.8063n  700.0000m 
  674.39322m  603.2337n  700.0000m 
  674.49322m  603.6615n  700.0000m 
  674.59322m  604.0897n  700.0000m 
  674.69322m  604.5183n  700.0000m 
  674.79322m  604.9473n  700.0000m 
  674.89322m  605.3766n  700.0000m 
  674.99322m  605.8064n  700.0000m 
  675.09322m  606.2366n  700.0000m 
  675.19322m  606.6671n  700.0000m 
  675.29322m  607.0981n  700.0000m 
  675.39322m  607.5294n  700.0000m 
  675.49322m  607.9611n  700.0000m 
  675.59322m  608.3933n  700.0000m 
  675.69322m  608.8258n  700.0000m 
  675.79322m  609.2588n  700.0000m 
  675.89322m  609.6921n  700.0000m 
  675.99322m  610.1258n  700.0000m 
  676.09322m  610.5600n  700.0000m 
  676.19322m  610.9945n  700.0000m 
  676.29322m  611.4294n  700.0000m 
  676.39322m  611.8647n  700.0000m 
  676.49322m  612.3005n  700.0000m 
  676.59322m  612.7366n  700.0000m 
  676.69322m  613.1732n  700.0000m 
  676.79322m  613.6101n  700.0000m 
  676.89322m  614.0474n  700.0000m 
  676.99322m  614.4852n  700.0000m 
  677.09322m  614.9233n  700.0000m 
  677.19322m  615.3619n  700.0000m 
  677.29322m  615.8008n  700.0000m 
  677.39322m  616.2402n  700.0000m 
  677.49322m  616.6800n  700.0000m 
  677.59322m  617.1201n  700.0000m 
  677.69322m  617.5607n  700.0000m 
  677.79322m  618.0017n  700.0000m 
  677.89322m  618.4431n  700.0000m 
  677.99322m  618.8849n  700.0000m 
  678.09322m  619.3271n  700.0000m 
  678.19322m  619.7697n  700.0000m 
  678.29322m  620.2127n  700.0000m 
  678.39322m  620.6562n  700.0000m 
  678.49322m  621.1000n  700.0000m 
  678.59322m  621.5442n  700.0000m 
  678.69322m  621.9889n  700.0000m 
  678.79322m  622.4340n  700.0000m 
  678.89322m  622.8795n  700.0000m 
  678.99322m  623.3254n  700.0000m 
  679.09322m  623.7717n  700.0000m 
  679.19322m  624.2184n  700.0000m 
  679.29322m  624.6655n  700.0000m 
  679.39322m  625.1131n  700.0000m 
  679.49322m  625.5610n  700.0000m 
  679.59322m  626.0094n  700.0000m 
  679.69322m  626.4582n  700.0000m 
  679.79322m  626.9074n  700.0000m 
  679.89322m  627.3570n  700.0000m 
  679.99322m  627.8070n  700.0000m 
  680.09322m  628.2575n  700.0000m 
  680.19322m  628.7084n  700.0000m 
  680.29322m  629.1596n  700.0000m 
  680.39322m  629.6113n  700.0000m 
  680.49322m  630.0635n  700.0000m 
  680.59322m  630.5160n  700.0000m 
  680.69322m  630.9690n  700.0000m 
  680.79322m  631.4223n  700.0000m 
  680.89322m  631.8761n  700.0000m 
  680.99322m  632.3303n  700.0000m 
  681.09322m  632.7850n  700.0000m 
  681.19322m  633.2400n  700.0000m 
  681.29322m  633.6955n  700.0000m 
  681.39322m  634.1514n  700.0000m 
  681.49322m  634.6078n  700.0000m 
  681.59322m  635.0645n  700.0000m 
  681.69322m  635.5217n  700.0000m 
  681.79322m  635.9793n  700.0000m 
  681.89322m  636.4373n  700.0000m 
  681.99322m  636.8957n  700.0000m 
  682.09322m  637.3546n  700.0000m 
  682.19322m  637.8139n  700.0000m 
  682.29322m  638.2736n  700.0000m 
  682.39322m  638.7338n  700.0000m 
  682.49322m  639.1944n  700.0000m 
  682.59322m  639.6554n  700.0000m 
  682.69322m  640.1168n  700.0000m 
  682.79322m  640.5786n  700.0000m 
  682.89322m  641.0409n  700.0000m 
  682.99322m  641.5037n  700.0000m 
  683.09322m  641.9668n  700.0000m 
  683.19322m  642.4304n  700.0000m 
  683.29322m  642.8944n  700.0000m 
  683.39322m  643.3588n  700.0000m 
  683.49322m  643.8237n  700.0000m 
  683.59322m  644.2890n  700.0000m 
  683.69322m  644.7547n  700.0000m 
  683.79322m  645.2209n  700.0000m 
  683.89322m  645.6875n  700.0000m 
  683.99322m  646.1545n  700.0000m 
  684.09322m  646.6220n  700.0000m 
  684.19322m  647.0899n  700.0000m 
  684.29322m  647.5582n  700.0000m 
  684.39322m  648.0270n  700.0000m 
  684.49322m  648.4962n  700.0000m 
  684.59322m  648.9659n  700.0000m 
  684.69322m  649.4360n  700.0000m 
  684.79322m  649.9065n  700.0000m 
  684.89322m  650.3774n  700.0000m 
  684.99322m  650.8488n  700.0000m 
  685.09322m  651.3207n  700.0000m 
  685.19322m  651.7929n  700.0000m 
  685.29322m  652.2657n  700.0000m 
  685.39322m  652.7388n  700.0000m 
  685.49322m  653.2124n  700.0000m 
  685.59322m  653.6865n  700.0000m 
  685.69322m  654.1609n  700.0000m 
  685.79322m  654.6359n  700.0000m 
  685.89322m  655.1112n  700.0000m 
  685.99322m  655.5870n  700.0000m 
  686.09322m  656.0633n  700.0000m 
  686.19322m  656.5400n  700.0000m 
  686.29322m  657.0171n  700.0000m 
  686.39322m  657.4947n  700.0000m 
  686.49322m  657.9727n  700.0000m 
  686.59322m  658.4512n  700.0000m 
  686.69322m  658.9301n  700.0000m 
  686.79322m  659.4095n  700.0000m 
  686.89322m  659.8893n  700.0000m 
  686.99322m  660.3696n  700.0000m 
  687.09322m  660.8503n  700.0000m 
  687.19322m  661.3314n  700.0000m 
  687.29322m  661.8130n  700.0000m 
  687.39322m  662.2951n  700.0000m 
  687.49322m  662.7776n  700.0000m 
  687.59322m  663.2606n  700.0000m 
  687.69322m  663.7440n  700.0000m 
  687.79322m  664.2278n  700.0000m 
  687.89322m  664.7121n  700.0000m 
  687.99322m  665.1969n  700.0000m 
  688.09322m  665.6821n  700.0000m 
  688.19322m  666.1678n  700.0000m 
  688.29322m  666.6539n  700.0000m 
  688.39322m  667.1405n  700.0000m 
  688.49322m  667.6275n  700.0000m 
  688.59322m  668.1150n  700.0000m 
  688.69322m  668.6030n  700.0000m 
  688.79322m  669.0914n  700.0000m 
  688.89322m  669.5802n  700.0000m 
  688.99322m  670.0695n  700.0000m 
  689.09322m  670.5593n  700.0000m 
  689.19322m  671.0495n  700.0000m 
  689.29322m  671.5402n  700.0000m 
  689.39322m  672.0314n  700.0000m 
  689.49322m  672.5230n  700.0000m 
  689.59322m  673.0151n  700.0000m 
  689.69322m  673.5076n  700.0000m 
  689.79322m  674.0006n  700.0000m 
  689.89322m  674.4940n  700.0000m 
  689.99322m  674.9879n  700.0000m 
  690.09322m  675.4823n  700.0000m 
  690.19322m  675.9772n  700.0000m 
  690.29322m  676.4725n  700.0000m 
  690.39322m  676.9682n  700.0000m 
  690.49322m  677.4645n  700.0000m 
  690.59322m  677.9612n  700.0000m 
  690.69322m  678.4583n  700.0000m 
  690.79322m  678.9559n  700.0000m 
  690.89322m  679.4540n  700.0000m 
  690.99322m  679.9526n  700.0000m 
  691.09322m  680.4516n  700.0000m 
  691.19322m  680.9511n  700.0000m 
  691.29322m  681.4511n  700.0000m 
  691.39322m  681.9515n  700.0000m 
  691.49322m  682.4524n  700.0000m 
  691.59322m  682.9538n  700.0000m 
  691.69322m  683.4556n  700.0000m 
  691.79322m  683.9580n  700.0000m 
  691.89322m  684.4607n  700.0000m 
  691.99322m  684.9640n  700.0000m 
  692.09322m  685.4677n  700.0000m 
  692.19322m  685.9719n  700.0000m 
  692.29322m  686.4766n  700.0000m 
  692.39322m  686.9818n  700.0000m 
  692.49322m  687.4874n  700.0000m 
  692.59322m  687.9935n  700.0000m 
  692.69322m  688.5001n  700.0000m 
  692.79322m  689.0071n  700.0000m 
  692.89322m  689.5146n  700.0000m 
  692.99322m  690.0227n  700.0000m 
  693.09322m  690.5311n  700.0000m 
  693.19322m  691.0401n  700.0000m 
  693.29322m  691.5495n  700.0000m 
  693.39322m  692.0594n  700.0000m 
  693.49322m  692.5698n  700.0000m 
  693.59322m  693.0807n  700.0000m 
  693.69322m  693.5921n  700.0000m 
  693.79322m  694.1039n  700.0000m 
  693.89322m  694.6162n  700.0000m 
  693.99322m  695.1290n  700.0000m 
  694.09322m  695.6423n  700.0000m 
  694.19322m  696.1561n  700.0000m 
  694.29322m  696.6703n  700.0000m 
  694.39322m  697.1851n  700.0000m 
  694.49322m  697.7003n  700.0000m 
  694.59322m  698.2160n  700.0000m 
  694.69322m  698.7322n  700.0000m 
  694.79322m  699.2489n  700.0000m 
  694.89322m  699.7660n  700.0000m 
  694.99322m  700.2837n  700.0000m 
  695.09322m  700.8018n  700.0000m 
  695.19322m  701.3204n  700.0000m 
  695.29322m  701.8395n  700.0000m 
  695.39322m  702.3592n  700.0000m 
  695.49322m  702.8792n  700.0000m 
  695.59322m  703.3998n  700.0000m 
  695.69322m  703.9209n  700.0000m 
  695.79322m  704.4425n  700.0000m 
  695.89322m  704.9645n  700.0000m 
  695.99322m  705.4871n  700.0000m 
  696.09322m  706.0101n  700.0000m 
  696.19322m  706.5336n  700.0000m 
  696.29322m  707.0577n  700.0000m 
  696.39322m  707.5822n  700.0000m 
  696.49322m  708.1072n  700.0000m 
  696.59322m  708.6327n  700.0000m 
  696.69322m  709.1587n  700.0000m 
  696.79322m  709.6852n  700.0000m 
  696.89322m  710.2122n  700.0000m 
  696.99322m  710.7397n  700.0000m 
  697.09322m  711.2677n  700.0000m 
  697.19322m  711.7962n  700.0000m 
  697.29322m  712.3252n  700.0000m 
  697.39322m  712.8547n  700.0000m 
  697.49322m  713.3847n  700.0000m 
  697.59322m  713.9152n  700.0000m 
  697.69322m  714.4462n  700.0000m 
  697.79322m  714.9777n  700.0000m 
  697.89322m  715.5097n  700.0000m 
  697.99322m  716.0422n  700.0000m 
  698.09322m  716.5752n  700.0000m 
  698.19322m  717.1087n  700.0000m 
  698.29322m  717.6428n  700.0000m 
  698.39322m  718.1773n  700.0000m 
  698.49322m  718.7123n  700.0000m 
  698.59322m  719.2478n  700.0000m 
  698.69322m  719.7839n  700.0000m 
  698.79322m  720.3204n  700.0000m 
  698.89322m  720.8575n  700.0000m 
  698.99322m  721.3950n  700.0000m 
  699.09322m  721.9331n  700.0000m 
  699.19322m  722.4717n  700.0000m 
  699.29322m  723.0108n  700.0000m 
  699.39322m  723.5504n  700.0000m 
  699.49322m  724.0905n  700.0000m 
  699.59322m  724.6311n  700.0000m 
  699.69322m  725.1722n  700.0000m 
  699.79322m  725.7139n  700.0000m 
  699.89322m  726.2560n  700.0000m 
  699.99322m  726.7987n  700.0000m 
  700.09322m  727.3419n  700.0000m 
  700.19322m  727.8856n  700.0000m 
  700.29322m  728.4298n  700.0000m 
  700.39322m  728.9745n  700.0000m 
  700.49322m  729.5198n  700.0000m 
  700.59322m  730.0656n  700.0000m 
  700.69322m  730.6118n  700.0000m 
  700.79322m  731.1586n  700.0000m 
  700.89322m  731.7060n  700.0000m 
  700.99322m  732.2538n  700.0000m 
  701.09322m  732.8022n  700.0000m 
  701.19322m  733.3510n  700.0000m 
  701.29322m  733.9004n  700.0000m 
  701.39322m  734.4504n  700.0000m 
  701.49322m  735.0008n  700.0000m 
  701.59322m  735.5518n  700.0000m 
  701.69322m  736.1032n  700.0000m 
  701.79322m  736.6553n  700.0000m 
  701.89322m  737.2078n  700.0000m 
  701.99322m  737.7608n  700.0000m 
  702.09322m  738.3144n  700.0000m 
  702.19322m  738.8685n  700.0000m 
  702.29322m  739.4232n  700.0000m 
  702.39322m  739.9783n  700.0000m 
  702.49322m  740.5340n  700.0000m 
  702.59322m  741.0902n  700.0000m 
  702.69322m  741.6470n  700.0000m 
  702.79322m  742.2043n  700.0000m 
  702.89322m  742.7621n  700.0000m 
  702.99322m  743.3204n  700.0000m 
  703.09322m  743.8793n  700.0000m 
  703.19322m  744.4387n  700.0000m 
  703.29322m  744.9986n  700.0000m 
  703.39322m  745.5591n  700.0000m 
  703.49322m  746.1200n  700.0000m 
  703.59322m  746.6816n  700.0000m 
  703.69322m  747.2436n  700.0000m 
  703.79322m  747.8062n  700.0000m 
  703.89322m  748.3694n  700.0000m 
  703.99322m  748.9330n  700.0000m 
  704.09322m  749.4972n  700.0000m 
  704.19322m  750.0620n  700.0000m 
  704.29322m  750.6273n  700.0000m 
  704.39322m  751.1931n  700.0000m 
  704.49322m  751.7594n  700.0000m 
  704.59322m  752.3263n  700.0000m 
  704.69322m  752.8938n  700.0000m 
  704.79322m  753.4617n  700.0000m 
  704.89322m  754.0302n  700.0000m 
  704.99322m  754.5993n  700.0000m 
  705.09322m  755.1689n  700.0000m 
  705.19322m  755.7390n  700.0000m 
  705.29322m  756.3097n  700.0000m 
  705.39322m  756.8810n  700.0000m 
  705.49322m  757.4527n  700.0000m 
  705.59322m  758.0250n  700.0000m 
  705.69322m  758.5979n  700.0000m 
  705.79322m  759.1713n  700.0000m 
  705.89322m  759.7453n  700.0000m 
  705.99322m  760.3198n  700.0000m 
  706.09322m  760.8948n  700.0000m 
  706.19322m  761.4704n  700.0000m 
  706.29322m  762.0466n  700.0000m 
  706.39322m  762.6233n  700.0000m 
  706.49322m  763.2005n  700.0000m 
  706.59322m  763.7783n  700.0000m 
  706.69322m  764.3567n  700.0000m 
  706.79322m  764.9356n  700.0000m 
  706.89322m  765.5150n  700.0000m 
  706.99322m  766.0950n  700.0000m 
  707.09322m  766.6756n  700.0000m 
y
1****** HSPICE -- Q-2020.03-SP2-2 linux64 (Nov  1 2020) ******                  
 ******  
 .title ex1_1

 ****** operating point information tnom=  25.000 temp=  25.000 ******
 ****** operating point status is all       simulation time is     0.     
    node    =voltage      node    =voltage      node    =voltage

 +0:bl      = 700.0000m 0:blb     = 700.0000m 0:gl      = 369.3010m
 +0:q       = 369.3010m 0:qb      = 369.3010m 0:u       =   0.     
 +0:v1      = 522.2705m 0:vdd     = 700.0000m 0:wl      =   0.     
 +0:x       = 675.3233m


 **** voltage sources

 subckt                                   
 element  0:vdd      0:vu       0:vwl     
  volts    700.0000m    0.         0.     
  current -998.3327n    0.       305.0210f
  power    698.8329n    0.         0.     

     total voltage source power dissipation=  698.8329n       watts



 **** voltage-controlled voltage sources


 subckt                        
 element  0:eli      0:ev1     
  volts    369.3010m  522.2705m
  current   16.1796f    0.     





 **** mosfets


 subckt                                                                    
 element  0:mp_pu1   0:mp_pu2   0:mn_pd1   0:mn_pd2   0:mn_ax1   0:mn_ax2  
 model    0:pmos_sra 0:pmos_sra 0:nmos_sra 0:nmos_sra 0:nmos_sra 0:nmos_sra
 region   Subth      Subth      Subth      Subth      Cutoff     Cutoff    
  id      -499.1663n -499.1663n  499.1663n  499.1662n  938.2390a  938.2390a
  ibs        0.         0.         0.         0.         0.         0.     
  ibd        0.         0.         0.         0.         0.         0.     
  vgs     -330.6990m -330.6990m  369.3010m  369.3010m -369.3010m -369.3010m
  vds     -330.6990m -330.6990m  369.3010m  369.3010m  330.6990m  330.6990m
  vbs        0.         0.         0.         0.       306.0223m  306.0223m
  vth     -334.7549m -334.7549m  408.4973m  408.4973m  408.7099m  408.7099m
  vdsat    -95.5225m  -95.5225m   79.1198m   79.1198m   70.6690m   70.6690m
  vod        4.0559m    4.0559m  -39.1962m  -39.1962m -778.0109m -778.0109m
  beta       1.6413m    1.6413m    2.1736m    2.1736m    2.1736m    2.1736m
  gam eff    0.         0.         0.         0.         0.         0.     
  gm        12.9906u   12.9906u   15.3997u   15.3997u  8.590e-21  8.590e-21
  gds      301.4597n  301.4597n  239.6259n  239.6259n  228.2549a  228.2552a
  gmb        4.7534p    4.7534p    5.0811p    5.0811p  1.341e-20  1.341e-20
  cdtot     10.1750a   10.1750a   10.2205a   10.2205a   10.2225a   10.2225a
  cgtot     31.2784a   31.2784a   26.1428a   26.1428a   20.4450a   20.4450a
  cstot     17.2863a   17.2863a   14.0661a   14.0661a   10.2225a   10.2225a
  cbtot      0.         0.         0.         0.         0.         0.     
  cgs       21.2138a   21.2138a   15.9421a   15.9421a   10.2225a   10.2225a
  cgd       10.0646a   10.0646a   10.2007a   10.2007a   10.2225a   10.2225a




          ***** job concluded
 ******  
 .title ex1_1

 ****** job statistics summary tnom=  25.000 temp=  25.000 ******
  
 ******  Machine Information  ******
 CPU:
 model name	: AMD EPYC 7713 64-Core Processor
 cpu MHz	: 2000.000
  
 OS:
 Linux version 3.10.0-1160.88.1.el7.x86_64 (mockbuild@kbuilder.bsys.centos.org) (gcc version 4.8.5 20150623 (Red Hat 4.8.5-44) (GCC) ) #1 SMP Tue Mar 7 15:41:52 UTC 2023


  ******  HSPICE Threads Information  ******

  Command Line Threads Count :     1
  Available CPU Count        :   256
  Actual Threads Count       :     1


  ******  Circuit Statistics  ******
  # nodes       =      11 # elements   =      11
  # resistors   =       0 # capacitors =       0 # inductors   =       0
  # mutual_inds =       0 # vccs       =       0 # vcvs        =       2
  # cccs        =       0 # ccvs       =       0 # volt_srcs   =       3
  # curr_srcs   =       0 # diodes     =       0 # bjts        =       0
  # jfets       =       0 # mosfets    =       6 # U elements  =       0
  # T elements  =       0 # W elements =       0 # B elements  =       0
  # S elements  =       0 # P elements =       0 # va device   =       0
  # vector_srcs =       0 # N elements =       0


  ******  Runtime Statistics (seconds)  ******

  analysis           time    # points   tot. iter  conv.iter
  op point           0.02           1           7
  dc sweep           1.03       14143       43174
  readin             0.01
  errchk             0.00
  setup              0.00
  output             0.00


           peak memory used        400.89 megabytes
           total cpu time            1.10 seconds
           total elapsed time        1.59 seconds
           job started at     22:05:11 03/18/2025
           job ended   at     22:05:13 03/18/2025
           job total runtime         1.59 seconds


 lic: Release hspice token(s) 
 lic: total license checkout elapse time:        0.48(s)
