 ****** HSPICE -- Q-2020.03-SP2-2 linux64 (Nov  1 2020) ******                  
  Copyright (c) 1986 - 2025 by Synopsys, Inc. All Rights Reserved.              
  This software and the associated documentation are proprietary
  to Synopsys, Inc. This software may only be used in accordance
  with the terms and conditions of a written license agreement with
  Synopsys, Inc. All other use, reproduction, or distribution of
  this software is strictly prohibited.
  Input File: ex1_1.sp                                                          
  Command line options: /RAID2/cad/synopsys/hspice/2020.03-sp2-2/hspice/linux64/hspice -i ex1_1.sp -o ex1_1.lis
  Start time: Fri Mar 14 20:54:03 2025
 lic:  
 lic: FLEXlm: SDK_12.6 
 lic: USER:   es25MCS042           HOSTNAME: ee28 
 lic: HOSTID: "d85ed3efc19a"       PID:      220804 
 lic: Using FLEXlm license file: 
 lic: 26585@lshc 
 lic: Checkout 1 hspice 
 lic: License/Maintenance for hspice will expire on 14-may-2025/2024.09 
 lic: 133(in_use)/1100(total) FLOATING license(s) on SERVER 26585@lshc 
 lic:   
  
      
             
 Warning:'Floating bulk' occurs 1 times
 Summary of floating bulk:
 -----------------------
 |Node      |Device    |
 |----------+----------|
 |x         |mpr       |
 -----------------------
              
 *****************************************************************
 ******  option summary
 ******
 runlvl  = 3         bypass  = 2.0000    
 ******
 .title noise margin in hold operation

 ****** dc transfer curves tnom=  25.000 temp=  25.000 ******
x

 volt         voltage    voltage   
             q          qb         
 -707.10678m   22.1047n  700.0000m 
 -707.00678m   22.0921n  700.0000m 
 -706.90678m   22.0794n  700.0000m 
 -706.80678m   22.0668n  700.0000m 
 -706.70678m   22.0542n  700.0000m 
 -706.60678m   22.0416n  700.0000m 
 -706.50678m   22.0290n  700.0000m 
 -706.40678m   22.0164n  700.0000m 
 -706.30678m   22.0038n  700.0000m 
 -706.20678m   21.9912n  700.0000m 
 -706.10678m   21.9786n  700.0000m 
 -706.00678m   21.9660n  700.0000m 
 -705.90678m   21.9534n  700.0000m 
 -705.80678m   21.9408n  700.0000m 
 -705.70678m   21.9282n  700.0000m 
 -705.60678m   21.9156n  700.0000m 
 -705.50678m   21.9030n  700.0000m 
 -705.40678m   21.8905n  700.0000m 
 -705.30678m   21.8779n  700.0000m 
 -705.20678m   21.8653n  700.0000m 
 -705.10678m   21.8527n  700.0000m 
 -705.00678m   21.8402n  700.0000m 
 -704.90678m   21.8276n  700.0000m 
 -704.80678m   21.8150n  700.0000m 
 -704.70678m   21.8025n  700.0000m 
 -704.60678m   21.7899n  700.0000m 
 -704.50678m   21.7774n  700.0000m 
 -704.40678m   21.7648n  700.0000m 
 -704.30678m   21.7523n  700.0000m 
 -704.20678m   21.7397n  700.0000m 
 -704.10678m   21.7272n  700.0000m 
 -704.00678m   21.7146n  700.0000m 
 -703.90678m   21.7021n  700.0000m 
 -703.80678m   21.6896n  700.0000m 
 -703.70678m   21.6770n  700.0000m 
 -703.60678m   21.6645n  700.0000m 
 -703.50678m   21.6520n  700.0000m 
 -703.40678m   21.6395n  700.0000m 
 -703.30678m   21.6269n  700.0000m 
 -703.20678m   21.6144n  700.0000m 
 -703.10678m   21.6019n  700.0000m 
 -703.00678m   21.5894n  700.0000m 
 -702.90678m   21.5769n  700.0000m 
 -702.80678m   21.5644n  700.0000m 
 -702.70678m   21.5519n  700.0000m 
 -702.60678m   21.5394n  700.0000m 
 -702.50678m   21.5269n  700.0000m 
 -702.40678m   21.5144n  700.0000m 
 -702.30678m   21.5019n  700.0000m 
 -702.20678m   21.4894n  700.0000m 
 -702.10678m   21.4769n  700.0000m 
 -702.00678m   21.4644n  700.0000m 
 -701.90678m   21.4519n  700.0000m 
 -701.80678m   21.4394n  700.0000m 
 -701.70678m   21.4270n  700.0000m 
 -701.60678m   21.4145n  700.0000m 
 -701.50678m   21.4020n  700.0000m 
 -701.40678m   21.3895n  700.0000m 
 -701.30678m   21.3771n  700.0000m 
 -701.20678m   21.3646n  700.0000m 
 -701.10678m   21.3521n  700.0000m 
 -701.00678m   21.3397n  700.0000m 
 -700.90678m   21.3272n  700.0000m 
 -700.80678m   21.3148n  700.0000m 
 -700.70678m   21.3023n  700.0000m 
 -700.60678m   21.2899n  700.0000m 
 -700.50678m   21.2774n  700.0000m 
 -700.40678m   21.2650n  700.0000m 
 -700.30678m   21.2525n  700.0000m 
 -700.20678m   21.2401n  700.0000m 
 -700.10678m   21.2277n  700.0000m 
 -700.00678m   21.2152n  700.0000m 
 -699.90678m   21.2028n  700.0000m 
 -699.80678m   21.1904n  700.0000m 
 -699.70678m   21.1779n  700.0000m 
 -699.60678m   21.1655n  700.0000m 
 -699.50678m   21.1531n  700.0000m 
 -699.40678m   21.1407n  700.0000m 
 -699.30678m   21.1283n  700.0000m 
 -699.20678m   21.1159n  700.0000m 
 -699.10678m   21.1034n  700.0000m 
 -699.00678m   21.0910n  700.0000m 
 -698.90678m   21.0786n  700.0000m 
 -698.80678m   21.0662n  700.0000m 
 -698.70678m   21.0538n  700.0000m 
 -698.60678m   21.0414n  700.0000m 
 -698.50678m   21.0290n  700.0000m 
 -698.40678m   21.0166n  700.0000m 
 -698.30678m   21.0043n  700.0000m 
 -698.20678m   20.9919n  700.0000m 
 -698.10678m   20.9795n  700.0000m 
 -698.00678m   20.9671n  700.0000m 
 -697.90678m   20.9547n  700.0000m 
 -697.80678m   20.9423n  700.0000m 
 -697.70678m   20.9300n  700.0000m 
 -697.60678m   20.9176n  700.0000m 
 -697.50678m   20.9052n  700.0000m 
 -697.40678m   20.8928n  700.0000m 
 -697.30678m   20.8805n  700.0000m 
 -697.20678m   20.8681n  700.0000m 
 -697.10678m   20.8558n  700.0000m 
 -697.00678m   20.8434n  700.0000m 
 -696.90678m   20.8310n  700.0000m 
 -696.80678m   20.8187n  700.0000m 
 -696.70678m   20.8063n  700.0000m 
 -696.60678m   20.7940n  700.0000m 
 -696.50678m   20.7816n  700.0000m 
 -696.40678m   20.7693n  700.0000m 
 -696.30678m   20.7570n  700.0000m 
 -696.20678m   20.7446n  700.0000m 
 -696.10678m   20.7323n  700.0000m 
 -696.00678m   20.7199n  700.0000m 
 -695.90678m   20.7076n  700.0000m 
 -695.80678m   20.6953n  700.0000m 
 -695.70678m   20.6830n  700.0000m 
 -695.60678m   20.6706n  700.0000m 
 -695.50678m   20.6583n  700.0000m 
 -695.40678m   20.6460n  700.0000m 
 -695.30678m   20.6337n  700.0000m 
 -695.20678m   20.6214n  700.0000m 
 -695.10678m   20.6090n  700.0000m 
 -695.00678m   20.5967n  700.0000m 
 -694.90678m   20.5844n  700.0000m 
 -694.80678m   20.5721n  700.0000m 
 -694.70678m   20.5598n  700.0000m 
 -694.60678m   20.5475n  700.0000m 
 -694.50678m   20.5352n  700.0000m 
 -694.40678m   20.5229n  700.0000m 
 -694.30678m   20.5106n  700.0000m 
 -694.20678m   20.4983n  700.0000m 
 -694.10678m   20.4860n  700.0000m 
 -694.00678m   20.4737n  700.0000m 
 -693.90678m   20.4615n  700.0000m 
 -693.80678m   20.4492n  700.0000m 
 -693.70678m   20.4369n  700.0000m 
 -693.60678m   20.4246n  700.0000m 
 -693.50678m   20.4123n  700.0000m 
 -693.40678m   20.4001n  700.0000m 
 -693.30678m   20.3878n  700.0000m 
 -693.20678m   20.3755n  700.0000m 
 -693.10678m   20.3633n  700.0000m 
 -693.00678m   20.3510n  700.0000m 
 -692.90678m   20.3387n  700.0000m 
 -692.80678m   20.3265n  700.0000m 
 -692.70678m   20.3142n  700.0000m 
 -692.60678m   20.3020n  700.0000m 
 -692.50678m   20.2897n  700.0000m 
 -692.40678m   20.2775n  700.0000m 
 -692.30678m   20.2652n  700.0000m 
 -692.20678m   20.2530n  700.0000m 
 -692.10678m   20.2407n  700.0000m 
 -692.00678m   20.2285n  700.0000m 
 -691.90678m   20.2162n  700.0000m 
 -691.80678m   20.2040n  700.0000m 
 -691.70678m   20.1918n  700.0000m 
 -691.60678m   20.1795n  700.0000m 
 -691.50678m   20.1673n  700.0000m 
 -691.40678m   20.1551n  700.0000m 
 -691.30678m   20.1428n  700.0000m 
 -691.20678m   20.1306n  700.0000m 
 -691.10678m   20.1184n  700.0000m 
 -691.00678m   20.1062n  700.0000m 
 -690.90678m   20.0939n  700.0000m 
 -690.80678m   20.0817n  700.0000m 
 -690.70678m   20.0695n  700.0000m 
 -690.60678m   20.0573n  700.0000m 
 -690.50678m   20.0451n  700.0000m 
 -690.40678m   20.0329n  700.0000m 
 -690.30678m   20.0207n  700.0000m 
 -690.20678m   20.0085n  700.0000m 
 -690.10678m   19.9963n  700.0000m 
 -690.00678m   19.9841n  700.0000m 
 -689.90678m   19.9719n  700.0000m 
 -689.80678m   19.9597n  700.0000m 
 -689.70678m   19.9475n  700.0000m 
 -689.60678m   19.9353n  700.0000m 
 -689.50678m   19.9231n  700.0000m 
 -689.40678m   19.9109n  700.0000m 
 -689.30678m   19.8987n  700.0000m 
 -689.20678m   19.8866n  700.0000m 
 -689.10678m   19.8744n  700.0000m 
 -689.00678m   19.8622n  700.0000m 
 -688.90678m   19.8500n  700.0000m 
 -688.80678m   19.8379n  700.0000m 
 -688.70678m   19.8257n  700.0000m 
 -688.60678m   19.8135n  700.0000m 
 -688.50678m   19.8013n  700.0000m 
 -688.40678m   19.7892n  700.0000m 
 -688.30678m   19.7770n  700.0000m 
 -688.20678m   19.7649n  700.0000m 
 -688.10678m   19.7527n  700.0000m 
 -688.00678m   19.7405n  700.0000m 
 -687.90678m   19.7284n  700.0000m 
 -687.80678m   19.7162n  700.0000m 
 -687.70678m   19.7041n  700.0000m 
 -687.60678m   19.6919n  700.0000m 
 -687.50678m   19.6798n  700.0000m 
 -687.40678m   19.6676n  700.0000m 
 -687.30678m   19.6555n  700.0000m 
 -687.20678m   19.6433n  700.0000m 
 -687.10678m   19.6312n  700.0000m 
 -687.00678m   19.6191n  700.0000m 
 -686.90678m   19.6069n  700.0000m 
 -686.80678m   19.5948n  700.0000m 
 -686.70678m   19.5827n  700.0000m 
 -686.60678m   19.5705n  700.0000m 
 -686.50678m   19.5584n  700.0000m 
 -686.40678m   19.5463n  700.0000m 
 -686.30678m   19.5342n  700.0000m 
 -686.20678m   19.5220n  700.0000m 
 -686.10678m   19.5099n  700.0000m 
 -686.00678m   19.4978n  700.0000m 
 -685.90678m   19.4857n  700.0000m 
 -685.80678m   19.4736n  700.0000m 
 -685.70678m   19.4615n  700.0000m 
 -685.60678m   19.4494n  700.0000m 
 -685.50678m   19.4373n  700.0000m 
 -685.40678m   19.4251n  700.0000m 
 -685.30678m   19.4130n  700.0000m 
 -685.20678m   19.4009n  700.0000m 
 -685.10678m   19.3888n  700.0000m 
 -685.00678m   19.3767n  700.0000m 
 -684.90678m   19.3646n  700.0000m 
 -684.80678m   19.3526n  700.0000m 
 -684.70678m   19.3405n  700.0000m 
 -684.60678m   19.3284n  700.0000m 
 -684.50678m   19.3163n  700.0000m 
 -684.40678m   19.3042n  700.0000m 
 -684.30678m   19.2921n  700.0000m 
 -684.20678m   19.2800n  700.0000m 
 -684.10678m   19.2679n  700.0000m 
 -684.00678m   19.2559n  700.0000m 
 -683.90678m   19.2438n  700.0000m 
 -683.80678m   19.2317n  700.0000m 
 -683.70678m   19.2196n  700.0000m 
 -683.60678m   19.2076n  700.0000m 
 -683.50678m   19.1955n  700.0000m 
 -683.40678m   19.1834n  700.0000m 
 -683.30678m   19.1714n  700.0000m 
 -683.20678m   19.1593n  700.0000m 
 -683.10678m   19.1472n  700.0000m 
 -683.00678m   19.1352n  700.0000m 
 -682.90678m   19.1231n  700.0000m 
 -682.80678m   19.1111n  700.0000m 
 -682.70678m   19.0990n  700.0000m 
 -682.60678m   19.0870n  700.0000m 
 -682.50678m   19.0749n  700.0000m 
 -682.40678m   19.0629n  700.0000m 
 -682.30678m   19.0508n  700.0000m 
 -682.20678m   19.0388n  700.0000m 
 -682.10678m   19.0267n  700.0000m 
 -682.00678m   19.0147n  700.0000m 
 -681.90678m   19.0027n  700.0000m 
 -681.80678m   18.9906n  700.0000m 
 -681.70678m   18.9786n  700.0000m 
 -681.60678m   18.9665n  700.0000m 
 -681.50678m   18.9545n  700.0000m 
 -681.40678m   18.9425n  700.0000m 
 -681.30678m   18.9305n  700.0000m 
 -681.20678m   18.9184n  700.0000m 
 -681.10678m   18.9064n  700.0000m 
 -681.00678m   18.8944n  700.0000m 
 -680.90678m   18.8824n  700.0000m 
 -680.80678m   18.8703n  700.0000m 
 -680.70678m   18.8583n  700.0000m 
 -680.60678m   18.8463n  700.0000m 
 -680.50678m   18.8343n  700.0000m 
 -680.40678m   18.8223n  700.0000m 
 -680.30678m   18.8103n  700.0000m 
 -680.20678m   18.7983n  700.0000m 
 -680.10678m   18.7863n  700.0000m 
 -680.00678m   18.7742n  700.0000m 
 -679.90678m   18.7622n  700.0000m 
 -679.80678m   18.7502n  700.0000m 
 -679.70678m   18.7382n  700.0000m 
 -679.60678m   18.7262n  700.0000m 
 -679.50678m   18.7142n  700.0000m 
 -679.40678m   18.7022n  700.0000m 
 -679.30678m   18.6903n  700.0000m 
 -679.20678m   18.6783n  700.0000m 
 -679.10678m   18.6663n  700.0000m 
 -679.00678m   18.6543n  700.0000m 
 -678.90678m   18.6423n  700.0000m 
 -678.80678m   18.6303n  700.0000m 
 -678.70678m   18.6183n  700.0000m 
 -678.60678m   18.6064n  700.0000m 
 -678.50678m   18.5944n  700.0000m 
 -678.40678m   18.5824n  700.0000m 
 -678.30678m   18.5704n  700.0000m 
 -678.20678m   18.5584n  700.0000m 
 -678.10678m   18.5465n  700.0000m 
 -678.00678m   18.5345n  700.0000m 
 -677.90678m   18.5225n  700.0000m 
 -677.80678m   18.5106n  700.0000m 
 -677.70678m   18.4986n  700.0000m 
 -677.60678m   18.4866n  700.0000m 
 -677.50678m   18.4747n  700.0000m 
 -677.40678m   18.4627n  700.0000m 
 -677.30678m   18.4508n  700.0000m 
 -677.20678m   18.4388n  700.0000m 
 -677.10678m   18.4268n  700.0000m 
 -677.00678m   18.4149n  700.0000m 
 -676.90678m   18.4029n  700.0000m 
 -676.80678m   18.3910n  700.0000m 
 -676.70678m   18.3790n  700.0000m 
 -676.60678m   18.3671n  700.0000m 
 -676.50678m   18.3551n  700.0000m 
 -676.40678m   18.3432n  700.0000m 
 -676.30678m   18.3313n  700.0000m 
 -676.20678m   18.3193n  700.0000m 
 -676.10678m   18.3074n  700.0000m 
 -676.00678m   18.2954n  700.0000m 
 -675.90678m   18.2835n  700.0000m 
 -675.80678m   18.2716n  700.0000m 
 -675.70678m   18.2596n  700.0000m 
 -675.60678m   18.2477n  700.0000m 
 -675.50678m   18.2358n  700.0000m 
 -675.40678m   18.2238n  700.0000m 
 -675.30678m   18.2119n  700.0000m 
 -675.20678m   18.2000n  700.0000m 
 -675.10678m   18.1881n  700.0000m 
 -675.00678m   18.1762n  700.0000m 
 -674.90678m   18.1642n  700.0000m 
 -674.80678m   18.1523n  700.0000m 
 -674.70678m   18.1404n  700.0000m 
 -674.60678m   18.1285n  700.0000m 
 -674.50678m   18.1166n  700.0000m 
 -674.40678m   18.1047n  700.0000m 
 -674.30678m   18.0928n  700.0000m 
 -674.20678m   18.0808n  700.0000m 
 -674.10678m   18.0689n  700.0000m 
 -674.00678m   18.0570n  700.0000m 
 -673.90678m   18.0451n  700.0000m 
 -673.80678m   18.0332n  700.0000m 
 -673.70678m   18.0213n  700.0000m 
 -673.60678m   18.0094n  700.0000m 
 -673.50678m   17.9975n  700.0000m 
 -673.40678m   17.9856n  700.0000m 
 -673.30678m   17.9737n  700.0000m 
 -673.20678m   17.9619n  700.0000m 
 -673.10678m   17.9500n  700.0000m 
 -673.00678m   17.9381n  700.0000m 
 -672.90678m   17.9262n  700.0000m 
 -672.80678m   17.9143n  700.0000m 
 -672.70678m   17.9024n  700.0000m 
 -672.60678m   17.8905n  700.0000m 
 -672.50678m   17.8786n  700.0000m 
 -672.40678m   17.8668n  700.0000m 
 -672.30678m   17.8549n  700.0000m 
 -672.20678m   17.8430n  700.0000m 
 -672.10678m   17.8311n  700.0000m 
 -672.00678m   17.8193n  700.0000m 
 -671.90678m   17.8074n  700.0000m 
 -671.80678m   17.7955n  700.0000m 
 -671.70678m   17.7837n  700.0000m 
 -671.60678m   17.7718n  700.0000m 
 -671.50678m   17.7599n  700.0000m 
 -671.40678m   17.7481n  700.0000m 
 -671.30678m   17.7362n  700.0000m 
 -671.20678m   17.7243n  700.0000m 
 -671.10678m   17.7125n  700.0000m 
 -671.00678m   17.7006n  700.0000m 
 -670.90678m   17.6888n  700.0000m 
 -670.80678m   17.6769n  700.0000m 
 -670.70678m   17.6650n  700.0000m 
 -670.60678m   17.6532n  700.0000m 
 -670.50678m   17.6413n  700.0000m 
 -670.40678m   17.6295n  700.0000m 
 -670.30678m   17.6176n  700.0000m 
 -670.20678m   17.6058n  700.0000m 
 -670.10678m   17.5940n  700.0000m 
 -670.00678m   17.5821n  700.0000m 
 -669.90678m   17.5703n  700.0000m 
 -669.80678m   17.5584n  700.0000m 
 -669.70678m   17.5466n  700.0000m 
 -669.60678m   17.5348n  700.0000m 
 -669.50678m   17.5229n  700.0000m 
 -669.40678m   17.5111n  700.0000m 
 -669.30678m   17.4993n  700.0000m 
 -669.20678m   17.4874n  700.0000m 
 -669.10678m   17.4756n  700.0000m 
 -669.00678m   17.4638n  700.0000m 
 -668.90678m   17.4519n  700.0000m 
 -668.80678m   17.4401n  700.0000m 
 -668.70678m   17.4283n  700.0000m 
 -668.60678m   17.4165n  700.0000m 
 -668.50678m   17.4046n  700.0000m 
 -668.40678m   17.3928n  700.0000m 
 -668.30678m   17.3810n  700.0000m 
 -668.20678m   17.3692n  700.0000m 
 -668.10678m   17.3574n  700.0000m 
 -668.00678m   17.3456n  700.0000m 
 -667.90678m   17.3337n  700.0000m 
 -667.80678m   17.3219n  700.0000m 
 -667.70678m   17.3101n  700.0000m 
 -667.60678m   17.2983n  700.0000m 
 -667.50678m   17.2865n  700.0000m 
 -667.40678m   17.2747n  700.0000m 
 -667.30678m   17.2629n  700.0000m 
 -667.20678m   17.2511n  700.0000m 
 -667.10678m   17.2393n  700.0000m 
 -667.00678m   17.2275n  700.0000m 
 -666.90678m   17.2157n  700.0000m 
 -666.80678m   17.2039n  700.0000m 
 -666.70678m   17.1921n  700.0000m 
 -666.60678m   17.1803n  700.0000m 
 -666.50678m   17.1685n  700.0000m 
 -666.40678m   17.1567n  700.0000m 
 -666.30678m   17.1450n  700.0000m 
 -666.20678m   17.1332n  700.0000m 
 -666.10678m   17.1214n  700.0000m 
 -666.00678m   17.1096n  700.0000m 
 -665.90678m   17.0978n  700.0000m 
 -665.80678m   17.0860n  700.0000m 
 -665.70678m   17.0743n  700.0000m 
 -665.60678m   17.0625n  700.0000m 
 -665.50678m   17.0507n  700.0000m 
 -665.40678m   17.0389n  700.0000m 
 -665.30678m   17.0271n  700.0000m 
 -665.20678m   17.0154n  700.0000m 
 -665.10678m   17.0036n  700.0000m 
 -665.00678m   16.9918n  700.0000m 
 -664.90678m   16.9801n  700.0000m 
 -664.80678m   16.9683n  700.0000m 
 -664.70678m   16.9565n  700.0000m 
 -664.60678m   16.9448n  700.0000m 
 -664.50678m   16.9330n  700.0000m 
 -664.40678m   16.9212n  700.0000m 
 -664.30678m   16.9095n  700.0000m 
 -664.20678m   16.8977n  700.0000m 
 -664.10678m   16.8860n  700.0000m 
 -664.00678m   16.8742n  700.0000m 
 -663.90678m   16.8624n  700.0000m 
 -663.80678m   16.8507n  700.0000m 
 -663.70678m   16.8389n  700.0000m 
 -663.60678m   16.8272n  700.0000m 
 -663.50678m   16.8154n  700.0000m 
 -663.40678m   16.8037n  700.0000m 
 -663.30678m   16.7920n  700.0000m 
 -663.20678m   16.7802n  700.0000m 
 -663.10678m   16.7685n  700.0000m 
 -663.00678m   16.7567n  700.0000m 
 -662.90678m   16.7450n  700.0000m 
 -662.80678m   16.7332n  700.0000m 
 -662.70678m   16.7215n  700.0000m 
 -662.60678m   16.7098n  700.0000m 
 -662.50678m   16.6980n  700.0000m 
 -662.40678m   16.6863n  700.0000m 
 -662.30678m   16.6746n  700.0000m 
 -662.20678m   16.6628n  700.0000m 
 -662.10678m   16.6511n  700.0000m 
 -662.00678m   16.6394n  700.0000m 
 -661.90678m   16.6276n  700.0000m 
 -661.80678m   16.6159n  700.0000m 
 -661.70678m   16.6042n  700.0000m 
 -661.60678m   16.5925n  700.0000m 
 -661.50678m   16.5808n  700.0000m 
 -661.40678m   16.5690n  700.0000m 
 -661.30678m   16.5573n  700.0000m 
 -661.20678m   16.5456n  700.0000m 
 -661.10678m   16.5339n  700.0000m 
 -661.00678m   16.5222n  700.0000m 
 -660.90678m   16.5105n  700.0000m 
 -660.80678m   16.4987n  700.0000m 
 -660.70678m   16.4870n  700.0000m 
 -660.60678m   16.4753n  700.0000m 
 -660.50678m   16.4636n  700.0000m 
 -660.40678m   16.4519n  700.0000m 
 -660.30678m   16.4402n  700.0000m 
 -660.20678m   16.4285n  700.0000m 
 -660.10678m   16.4168n  700.0000m 
 -660.00678m   16.4051n  700.0000m 
 -659.90678m   16.3934n  700.0000m 
 -659.80678m   16.3817n  700.0000m 
 -659.70678m   16.3700n  700.0000m 
 -659.60678m   16.3583n  700.0000m 
 -659.50678m   16.3466n  700.0000m 
 -659.40678m   16.3349n  700.0000m 
 -659.30678m   16.3232n  700.0000m 
 -659.20678m   16.3116n  700.0000m 
 -659.10678m   16.2999n  700.0000m 
 -659.00678m   16.2882n  700.0000m 
 -658.90678m   16.2765n  700.0000m 
 -658.80678m   16.2648n  700.0000m 
 -658.70678m   16.2531n  700.0000m 
 -658.60678m   16.2414n  700.0000m 
 -658.50678m   16.2298n  700.0000m 
 -658.40678m   16.2181n  700.0000m 
 -658.30678m   16.2064n  700.0000m 
 -658.20678m   16.1947n  700.0000m 
 -658.10678m   16.1831n  700.0000m 
 -658.00678m   16.1714n  700.0000m 
 -657.90678m   16.1597n  700.0000m 
 -657.80678m   16.1480n  700.0000m 
 -657.70678m   16.1364n  700.0000m 
 -657.60678m   16.1247n  700.0000m 
 -657.50678m   16.1130n  700.0000m 
 -657.40678m   16.1014n  700.0000m 
 -657.30678m   16.0897n  700.0000m 
 -657.20678m   16.0781n  700.0000m 
 -657.10678m   16.0664n  700.0000m 
 -657.00678m   16.0547n  700.0000m 
 -656.90678m   16.0431n  700.0000m 
 -656.80678m   16.0314n  700.0000m 
 -656.70678m   16.0198n  700.0000m 
 -656.60678m   16.0081n  700.0000m 
 -656.50678m   15.9965n  700.0000m 
 -656.40678m   15.9848n  700.0000m 
 -656.30678m   15.9732n  700.0000m 
 -656.20678m   15.9615n  700.0000m 
 -656.10678m   15.9499n  700.0000m 
 -656.00678m   15.9382n  700.0000m 
 -655.90678m   15.9266n  700.0000m 
 -655.80678m   15.9149n  700.0000m 
 -655.70678m   15.9033n  700.0000m 
 -655.60678m   15.8917n  700.0000m 
 -655.50678m   15.8800n  700.0000m 
 -655.40678m   15.8684n  700.0000m 
 -655.30678m   15.8568n  700.0000m 
 -655.20678m   15.8451n  700.0000m 
 -655.10678m   15.8335n  700.0000m 
 -655.00678m   15.8219n  700.0000m 
 -654.90678m   15.8103n  700.0000m 
 -654.80678m   15.7987n  700.0000m 
 -654.70678m   15.7871n  700.0000m 
 -654.60678m   15.7755n  700.0000m 
 -654.50678m   15.7639n  700.0000m 
 -654.40678m   15.7523n  700.0000m 
 -654.30678m   15.7407n  700.0000m 
 -654.20678m   15.7291n  700.0000m 
 -654.10678m   15.7175n  700.0000m 
 -654.00678m   15.7059n  700.0000m 
 -653.90678m   15.6943n  700.0000m 
 -653.80678m   15.6827n  700.0000m 
 -653.70678m   15.6711n  700.0000m 
 -653.60678m   15.6595n  700.0000m 
 -653.50678m   15.6479n  700.0000m 
 -653.40678m   15.6363n  700.0000m 
 -653.30678m   15.6247n  700.0000m 
 -653.20678m   15.6131n  700.0000m 
 -653.10678m   15.6015n  700.0000m 
 -653.00678m   15.5900n  700.0000m 
 -652.90678m   15.5784n  700.0000m 
 -652.80678m   15.5668n  700.0000m 
 -652.70678m   15.5552n  700.0000m 
 -652.60678m   15.5436n  700.0000m 
 -652.50678m   15.5321n  700.0000m 
 -652.40678m   15.5205n  700.0000m 
 -652.30678m   15.5089n  700.0000m 
 -652.20678m   15.4973n  700.0000m 
 -652.10678m   15.4858n  700.0000m 
 -652.00678m   15.4742n  700.0000m 
 -651.90678m   15.4626n  700.0000m 
 -651.80678m   15.4511n  700.0000m 
 -651.70678m   15.4395n  700.0000m 
 -651.60678m   15.4279n  700.0000m 
 -651.50678m   15.4164n  700.0000m 
 -651.40678m   15.4048n  700.0000m 
 -651.30678m   15.3933n  700.0000m 
 -651.20678m   15.3817n  700.0000m 
 -651.10678m   15.3702n  700.0000m 
 -651.00678m   15.3586n  700.0000m 
 -650.90678m   15.3470n  700.0000m 
 -650.80678m   15.3355n  700.0000m 
 -650.70678m   15.3239n  700.0000m 
 -650.60678m   15.3124n  700.0000m 
 -650.50678m   15.3009n  700.0000m 
 -650.40678m   15.2893n  700.0000m 
 -650.30678m   15.2778n  700.0000m 
 -650.20678m   15.2662n  700.0000m 
 -650.10678m   15.2547n  700.0000m 
 -650.00678m   15.2432n  700.0000m 
 -649.90678m   15.2316n  700.0000m 
 -649.80678m   15.2201n  700.0000m 
 -649.70678m   15.2086n  700.0000m 
 -649.60678m   15.1970n  700.0000m 
 -649.50678m   15.1855n  700.0000m 
 -649.40678m   15.1740n  700.0000m 
 -649.30678m   15.1624n  700.0000m 
 -649.20678m   15.1509n  700.0000m 
 -649.10678m   15.1394n  700.0000m 
 -649.00678m   15.1279n  700.0000m 
 -648.90678m   15.1164n  700.0000m 
 -648.80678m   15.1048n  700.0000m 
 -648.70678m   15.0933n  700.0000m 
 -648.60678m   15.0818n  700.0000m 
 -648.50678m   15.0703n  700.0000m 
 -648.40678m   15.0588n  700.0000m 
 -648.30678m   15.0473n  700.0000m 
 -648.20678m   15.0358n  700.0000m 
 -648.10678m   15.0243n  700.0000m 
 -648.00678m   15.0128n  700.0000m 
 -647.90678m   15.0012n  700.0000m 
 -647.80678m   14.9897n  700.0000m 
 -647.70678m   14.9782n  700.0000m 
 -647.60678m   14.9667n  700.0000m 
 -647.50678m   14.9553n  700.0000m 
 -647.40678m   14.9438n  700.0000m 
 -647.30678m   14.9323n  700.0000m 
 -647.20678m   14.9208n  700.0000m 
 -647.10678m   14.9093n  700.0000m 
 -647.00678m   14.8978n  700.0000m 
 -646.90678m   14.8863n  700.0000m 
 -646.80678m   14.8748n  700.0000m 
 -646.70678m   14.8633n  700.0000m 
 -646.60678m   14.8519n  700.0000m 
 -646.50678m   14.8404n  700.0000m 
 -646.40678m   14.8289n  700.0000m 
 -646.30678m   14.8174n  700.0000m 
 -646.20678m   14.8060n  700.0000m 
 -646.10678m   14.7945n  700.0000m 
 -646.00678m   14.7830n  700.0000m 
 -645.90678m   14.7715n  700.0000m 
 -645.80678m   14.7601n  700.0000m 
 -645.70678m   14.7486n  700.0000m 
 -645.60678m   14.7371n  700.0000m 
 -645.50678m   14.7257n  700.0000m 
 -645.40678m   14.7142n  700.0000m 
 -645.30678m   14.7028n  700.0000m 
 -645.20678m   14.6913n  700.0000m 
 -645.10678m   14.6798n  700.0000m 
 -645.00678m   14.6684n  700.0000m 
 -644.90678m   14.6569n  700.0000m 
 -644.80678m   14.6455n  700.0000m 
 -644.70678m   14.6340n  700.0000m 
 -644.60678m   14.6226n  700.0000m 
 -644.50678m   14.6112n  700.0000m 
 -644.40678m   14.5997n  700.0000m 
 -644.30678m   14.5883n  700.0000m 
 -644.20678m   14.5768n  700.0000m 
 -644.10678m   14.5654n  700.0000m 
 -644.00678m   14.5540n  700.0000m 
 -643.90678m   14.5425n  700.0000m 
 -643.80678m   14.5311n  700.0000m 
 -643.70678m   14.5197n  700.0000m 
 -643.60678m   14.5082n  700.0000m 
 -643.50678m   14.4968n  700.0000m 
 -643.40678m   14.4854n  700.0000m 
 -643.30678m   14.4740n  700.0000m 
 -643.20678m   14.4625n  700.0000m 
 -643.10678m   14.4511n  700.0000m 
 -643.00678m   14.4397n  700.0000m 
 -642.90678m   14.4283n  700.0000m 
 -642.80678m   14.4169n  700.0000m 
 -642.70678m   14.4055n  700.0000m 
 -642.60678m   14.3941n  700.0000m 
 -642.50678m   14.3826n  700.0000m 
 -642.40678m   14.3712n  700.0000m 
 -642.30678m   14.3598n  700.0000m 
 -642.20678m   14.3484n  700.0000m 
 -642.10678m   14.3370n  700.0000m 
 -642.00678m   14.3256n  700.0000m 
 -641.90678m   14.3142n  700.0000m 
 -641.80678m   14.3028n  700.0000m 
 -641.70678m   14.2914n  700.0000m 
 -641.60678m   14.2801n  700.0000m 
 -641.50678m   14.2687n  700.0000m 
 -641.40678m   14.2573n  700.0000m 
 -641.30678m   14.2459n  700.0000m 
 -641.20678m   14.2345n  700.0000m 
 -641.10678m   14.2231n  700.0000m 
 -641.00678m   14.2118n  700.0000m 
 -640.90678m   14.2004n  700.0000m 
 -640.80678m   14.1890n  700.0000m 
 -640.70678m   14.1776n  700.0000m 
 -640.60678m   14.1663n  700.0000m 
 -640.50678m   14.1549n  700.0000m 
 -640.40678m   14.1435n  700.0000m 
 -640.30678m   14.1322n  700.0000m 
 -640.20678m   14.1208n  700.0000m 
 -640.10678m   14.1094n  700.0000m 
 -640.00678m   14.0981n  700.0000m 
 -639.90678m   14.0867n  700.0000m 
 -639.80678m   14.0754n  700.0000m 
 -639.70678m   14.0640n  700.0000m 
 -639.60678m   14.0527n  700.0000m 
 -639.50678m   14.0413n  700.0000m 
 -639.40678m   14.0300n  700.0000m 
 -639.30678m   14.0186n  700.0000m 
 -639.20678m   14.0073n  700.0000m 
 -639.10678m   13.9959n  700.0000m 
 -639.00678m   13.9846n  700.0000m 
 -638.90678m   13.9733n  700.0000m 
 -638.80678m   13.9619n  700.0000m 
 -638.70678m   13.9506n  700.0000m 
 -638.60678m   13.9393n  700.0000m 
 -638.50678m   13.9280n  700.0000m 
 -638.40678m   13.9166n  700.0000m 
 -638.30678m   13.9053n  700.0000m 
 -638.20678m   13.8940n  700.0000m 
 -638.10678m   13.8827n  700.0000m 
 -638.00678m   13.8714n  700.0000m 
 -637.90678m   13.8600n  700.0000m 
 -637.80678m   13.8487n  700.0000m 
 -637.70678m   13.8374n  700.0000m 
 -637.60678m   13.8261n  700.0000m 
 -637.50678m   13.8148n  700.0000m 
 -637.40678m   13.8035n  700.0000m 
 -637.30678m   13.7922n  700.0000m 
 -637.20678m   13.7809n  700.0000m 
 -637.10678m   13.7696n  700.0000m 
 -637.00678m   13.7583n  700.0000m 
 -636.90678m   13.7470n  700.0000m 
 -636.80678m   13.7357n  700.0000m 
 -636.70678m   13.7244n  700.0000m 
 -636.60678m   13.7132n  700.0000m 
 -636.50678m   13.7019n  700.0000m 
 -636.40678m   13.6906n  700.0000m 
 -636.30678m   13.6793n  700.0000m 
 -636.20678m   13.6680n  700.0000m 
 -636.10678m   13.6568n  700.0000m 
 -636.00678m   13.6455n  700.0000m 
 -635.90678m   13.6342n  700.0000m 
 -635.80678m   13.6230n  700.0000m 
 -635.70678m   13.6117n  700.0000m 
 -635.60678m   13.6004n  700.0000m 
 -635.50678m   13.5892n  700.0000m 
 -635.40678m   13.5779n  700.0000m 
 -635.30678m   13.5667n  700.0000m 
 -635.20678m   13.5554n  700.0000m 
 -635.10678m   13.5442n  700.0000m 
 -635.00678m   13.5329n  700.0000m 
 -634.90678m   13.5217n  700.0000m 
 -634.80678m   13.5104n  700.0000m 
 -634.70678m   13.4992n  700.0000m 
 -634.60678m   13.4880n  700.0000m 
 -634.50678m   13.4767n  700.0000m 
 -634.40678m   13.4655n  700.0000m 
 -634.30678m   13.4543n  700.0000m 
 -634.20678m   13.4430n  700.0000m 
 -634.10678m   13.4318n  700.0000m 
 -634.00678m   13.4206n  700.0000m 
 -633.90678m   13.4094n  700.0000m 
 -633.80678m   13.3982n  700.0000m 
 -633.70678m   13.3869n  700.0000m 
 -633.60678m   13.3757n  700.0000m 
 -633.50678m   13.3645n  700.0000m 
 -633.40678m   13.3533n  700.0000m 
 -633.30678m   13.3421n  700.0000m 
 -633.20678m   13.3309n  700.0000m 
 -633.10678m   13.3197n  700.0000m 
 -633.00678m   13.3085n  700.0000m 
 -632.90678m   13.2973n  700.0000m 
 -632.80678m   13.2861n  700.0000m 
 -632.70678m   13.2749n  700.0000m 
 -632.60678m   13.2638n  700.0000m 
 -632.50678m   13.2526n  700.0000m 
 -632.40678m   13.2414n  700.0000m 
 -632.30678m   13.2302n  700.0000m 
 -632.20678m   13.2190n  700.0000m 
 -632.10678m   13.2079n  700.0000m 
 -632.00678m   13.1967n  700.0000m 
 -631.90678m   13.1855n  700.0000m 
 -631.80678m   13.1744n  700.0000m 
 -631.70678m   13.1632n  700.0000m 
 -631.60678m   13.1521n  700.0000m 
 -631.50678m   13.1409n  700.0000m 
 -631.40678m   13.1298n  700.0000m 
 -631.30678m   13.1186n  700.0000m 
 -631.20678m   13.1075n  700.0000m 
 -631.10678m   13.0963n  700.0000m 
 -631.00678m   13.0852n  700.0000m 
 -630.90678m   13.0740n  700.0000m 
 -630.80678m   13.0629n  700.0000m 
 -630.70678m   13.0518n  700.0000m 
 -630.60678m   13.0406n  700.0000m 
 -630.50678m   13.0295n  700.0000m 
 -630.40678m   13.0184n  700.0000m 
 -630.30678m   13.0073n  700.0000m 
 -630.20678m   12.9961n  700.0000m 
 -630.10678m   12.9850n  700.0000m 
 -630.00678m   12.9739n  700.0000m 
 -629.90678m   12.9628n  700.0000m 
 -629.80678m   12.9517n  700.0000m 
 -629.70678m   12.9406n  700.0000m 
 -629.60678m   12.9295n  700.0000m 
 -629.50678m   12.9184n  700.0000m 
 -629.40678m   12.9073n  700.0000m 
 -629.30678m   12.8962n  700.0000m 
 -629.20678m   12.8851n  700.0000m 
 -629.10678m   12.8741n  700.0000m 
 -629.00678m   12.8630n  700.0000m 
 -628.90678m   12.8519n  700.0000m 
 -628.80678m   12.8408n  700.0000m 
 -628.70678m   12.8297n  700.0000m 
 -628.60678m   12.8187n  700.0000m 
 -628.50678m   12.8076n  700.0000m 
 -628.40678m   12.7966n  700.0000m 
 -628.30678m   12.7855n  700.0000m 
 -628.20678m   12.7744n  700.0000m 
 -628.10678m   12.7634n  700.0000m 
 -628.00678m   12.7523n  700.0000m 
 -627.90678m   12.7413n  700.0000m 
 -627.80678m   12.7302n  700.0000m 
 -627.70678m   12.7192n  700.0000m 
 -627.60678m   12.7082n  700.0000m 
 -627.50678m   12.6971n  700.0000m 
 -627.40678m   12.6861n  700.0000m 
 -627.30678m   12.6751n  700.0000m 
 -627.20678m   12.6641n  700.0000m 
 -627.10678m   12.6530n  700.0000m 
 -627.00678m   12.6420n  700.0000m 
 -626.90678m   12.6310n  700.0000m 
 -626.80678m   12.6200n  700.0000m 
 -626.70678m   12.6090n  700.0000m 
 -626.60678m   12.5980n  700.0000m 
 -626.50678m   12.5870n  700.0000m 
 -626.40678m   12.5760n  700.0000m 
 -626.30678m   12.5650n  700.0000m 
 -626.20678m   12.5540n  700.0000m 
 -626.10678m   12.5430n  700.0000m 
 -626.00678m   12.5321n  700.0000m 
 -625.90678m   12.5211n  700.0000m 
 -625.80678m   12.5101n  700.0000m 
 -625.70678m   12.4991n  700.0000m 
 -625.60678m   12.4882n  700.0000m 
 -625.50678m   12.4772n  700.0000m 
 -625.40678m   12.4662n  700.0000m 
 -625.30678m   12.4553n  700.0000m 
 -625.20678m   12.4443n  700.0000m 
 -625.10678m   12.4334n  700.0000m 
 -625.00678m   12.4224n  700.0000m 
 -624.90678m   12.4115n  700.0000m 
 -624.80678m   12.4006n  700.0000m 
 -624.70678m   12.3896n  700.0000m 
 -624.60678m   12.3787n  700.0000m 
 -624.50678m   12.3678n  700.0000m 
 -624.40678m   12.3568n  700.0000m 
 -624.30678m   12.3459n  700.0000m 
 -624.20678m   12.3350n  700.0000m 
 -624.10678m   12.3241n  700.0000m 
 -624.00678m   12.3132n  700.0000m 
 -623.90678m   12.3023n  700.0000m 
 -623.80678m   12.2914n  700.0000m 
 -623.70678m   12.2805n  700.0000m 
 -623.60678m   12.2696n  700.0000m 
 -623.50678m   12.2587n  700.0000m 
 -623.40678m   12.2478n  700.0000m 
 -623.30678m   12.2370n  700.0000m 
 -623.20678m   12.2261n  700.0000m 
 -623.10678m   12.2152n  700.0000m 
 -623.00678m   12.2043n  700.0000m 
 -622.90678m   12.1935n  700.0000m 
 -622.80678m   12.1826n  700.0000m 
 -622.70678m   12.1718n  700.0000m 
 -622.60678m   12.1609n  700.0000m 
 -622.50678m   12.1501n  700.0000m 
 -622.40678m   12.1392n  700.0000m 
 -622.30678m   12.1284n  700.0000m 
 -622.20678m   12.1175n  700.0000m 
 -622.10678m   12.1067n  700.0000m 
 -622.00678m   12.0959n  700.0000m 
 -621.90678m   12.0851n  700.0000m 
 -621.80678m   12.0742n  700.0000m 
 -621.70678m   12.0634n  700.0000m 
 -621.60678m   12.0526n  700.0000m 
 -621.50678m   12.0418n  700.0000m 
 -621.40678m   12.0310n  700.0000m 
 -621.30678m   12.0202n  700.0000m 
 -621.20678m   12.0094n  700.0000m 
 -621.10678m   11.9986n  700.0000m 
 -621.00678m   11.9879n  700.0000m 
 -620.90678m   11.9771n  700.0000m 
 -620.80678m   11.9663n  700.0000m 
 -620.70678m   11.9555n  700.0000m 
 -620.60678m   11.9448n  700.0000m 
 -620.50678m   11.9340n  700.0000m 
 -620.40678m   11.9233n  700.0000m 
 -620.30678m   11.9125n  700.0000m 
 -620.20678m   11.9018n  700.0000m 
 -620.10678m   11.8910n  700.0000m 
 -620.00678m   11.8803n  700.0000m 
 -619.90678m   11.8695n  700.0000m 
 -619.80678m   11.8588n  700.0000m 
 -619.70678m   11.8481n  700.0000m 
 -619.60678m   11.8374n  700.0000m 
 -619.50678m   11.8267n  700.0000m 
 -619.40678m   11.8159n  700.0000m 
 -619.30678m   11.8052n  700.0000m 
 -619.20678m   11.7945n  700.0000m 
 -619.10678m   11.7838n  700.0000m 
 -619.00678m   11.7732n  700.0000m 
 -618.90678m   11.7625n  700.0000m 
 -618.80678m   11.7518n  700.0000m 
 -618.70678m   11.7411n  700.0000m 
 -618.60678m   11.7304n  700.0000m 
 -618.50678m   11.7198n  700.0000m 
 -618.40678m   11.7091n  700.0000m 
 -618.30678m   11.6985n  700.0000m 
 -618.20678m   11.6878n  700.0000m 
 -618.10678m   11.6772n  700.0000m 
 -618.00678m   11.6665n  700.0000m 
 -617.90678m   11.6559n  700.0000m 
 -617.80678m   11.6453n  700.0000m 
 -617.70678m   11.6346n  700.0000m 
 -617.60678m   11.6240n  700.0000m 
 -617.50678m   11.6134n  700.0000m 
 -617.40678m   11.6028n  700.0000m 
 -617.30678m   11.5922n  700.0000m 
 -617.20678m   11.5816n  700.0000m 
 -617.10678m   11.5710n  700.0000m 
 -617.00678m   11.5604n  700.0000m 
 -616.90678m   11.5498n  700.0000m 
 -616.80678m   11.5392n  700.0000m 
 -616.70678m   11.5287n  700.0000m 
 -616.60678m   11.5181n  700.0000m 
 -616.50678m   11.5075n  700.0000m 
 -616.40678m   11.4970n  700.0000m 
 -616.30678m   11.4864n  700.0000m 
 -616.20678m   11.4759n  700.0000m 
 -616.10678m   11.4653n  700.0000m 
 -616.00678m   11.4548n  700.0000m 
 -615.90678m   11.4443n  700.0000m 
 -615.80678m   11.4337n  700.0000m 
 -615.70678m   11.4232n  700.0000m 
 -615.60678m   11.4127n  700.0000m 
 -615.50678m   11.4022n  700.0000m 
 -615.40678m   11.3917n  700.0000m 
 -615.30678m   11.3812n  700.0000m 
 -615.20678m   11.3707n  700.0000m 
 -615.10678m   11.3602n  700.0000m 
 -615.00678m   11.3498n  700.0000m 
 -614.90678m   11.3393n  700.0000m 
 -614.80678m   11.3288n  700.0000m 
 -614.70678m   11.3184n  700.0000m 
 -614.60678m   11.3079n  700.0000m 
 -614.50678m   11.2975n  700.0000m 
 -614.40678m   11.2870n  700.0000m 
 -614.30678m   11.2766n  700.0000m 
 -614.20678m   11.2661n  700.0000m 
 -614.10678m   11.2557n  700.0000m 
 -614.00678m   11.2453n  700.0000m 
 -613.90678m   11.2349n  700.0000m 
 -613.80678m   11.2245n  700.0000m 
 -613.70678m   11.2141n  700.0000m 
 -613.60678m   11.2037n  700.0000m 
 -613.50678m   11.1933n  700.0000m 
 -613.40678m   11.1829n  700.0000m 
 -613.30678m   11.1725n  700.0000m 
 -613.20678m   11.1622n  700.0000m 
 -613.10678m   11.1518n  700.0000m 
 -613.00678m   11.1415n  700.0000m 
 -612.90678m   11.1311n  700.0000m 
 -612.80678m   11.1208n  700.0000m 
 -612.70678m   11.1104n  700.0000m 
 -612.60678m   11.1001n  700.0000m 
 -612.50678m   11.0898n  700.0000m 
 -612.40678m   11.0795n  700.0000m 
 -612.30678m   11.0691n  700.0000m 
 -612.20678m   11.0588n  700.0000m 
 -612.10678m   11.0485n  700.0000m 
 -612.00678m   11.0382n  700.0000m 
 -611.90678m   11.0280n  700.0000m 
 -611.80678m   11.0177n  700.0000m 
 -611.70678m   11.0074n  700.0000m 
 -611.60678m   10.9972n  700.0000m 
 -611.50678m   10.9869n  700.0000m 
 -611.40678m   10.9766n  700.0000m 
 -611.30678m   10.9664n  700.0000m 
 -611.20678m   10.9562n  700.0000m 
 -611.10678m   10.9459n  700.0000m 
 -611.00678m   10.9357n  700.0000m 
 -610.90678m   10.9255n  700.0000m 
 -610.80678m   10.9153n  700.0000m 
 -610.70678m   10.9051n  700.0000m 
 -610.60678m   10.8949n  700.0000m 
 -610.50678m   10.8847n  700.0000m 
 -610.40678m   10.8745n  700.0000m 
 -610.30678m   10.8643n  700.0000m 
 -610.20678m   10.8542n  700.0000m 
 -610.10678m   10.8440n  700.0000m 
 -610.00678m   10.8339n  700.0000m 
 -609.90678m   10.8237n  700.0000m 
 -609.80678m   10.8136n  700.0000m 
 -609.70678m   10.8035n  700.0000m 
 -609.60678m   10.7933n  700.0000m 
 -609.50678m   10.7832n  700.0000m 
 -609.40678m   10.7731n  700.0000m 
 -609.30678m   10.7630n  700.0000m 
 -609.20678m   10.7529n  700.0000m 
 -609.10678m   10.7428n  700.0000m 
 -609.00678m   10.7327n  700.0000m 
 -608.90678m   10.7227n  700.0000m 
 -608.80678m   10.7126n  700.0000m 
 -608.70678m   10.7026n  700.0000m 
 -608.60678m   10.6925n  700.0000m 
 -608.50678m   10.6825n  700.0000m 
 -608.40678m   10.6724n  700.0000m 
 -608.30678m   10.6624n  700.0000m 
 -608.20678m   10.6524n  700.0000m 
 -608.10678m   10.6424n  700.0000m 
 -608.00678m   10.6324n  700.0000m 
 -607.90678m   10.6224n  700.0000m 
 -607.80678m   10.6124n  700.0000m 
 -607.70678m   10.6024n  700.0000m 
 -607.60678m   10.5925n  700.0000m 
 -607.50678m   10.5825n  700.0000m 
 -607.40678m   10.5726n  700.0000m 
 -607.30678m   10.5626n  700.0000m 
 -607.20678m   10.5527n  700.0000m 
 -607.10678m   10.5428n  700.0000m 
 -607.00678m   10.5328n  700.0000m 
 -606.90678m   10.5229n  700.0000m 
 -606.80678m   10.5130n  700.0000m 
 -606.70678m   10.5031n  700.0000m 
 -606.60678m   10.4933n  700.0000m 
 -606.50678m   10.4834n  700.0000m 
 -606.40678m   10.4735n  700.0000m 
 -606.30678m   10.4637n  700.0000m 
 -606.20678m   10.4538n  700.0000m 
 -606.10678m   10.4440n  700.0000m 
 -606.00678m   10.4341n  700.0000m 
 -605.90678m   10.4243n  700.0000m 
 -605.80678m   10.4145n  700.0000m 
 -605.70678m   10.4047n  700.0000m 
 -605.60678m   10.3949n  700.0000m 
 -605.50678m   10.3851n  700.0000m 
 -605.40678m   10.3753n  700.0000m 
 -605.30678m   10.3656n  700.0000m 
 -605.20678m   10.3558n  700.0000m 
 -605.10678m   10.3460n  700.0000m 
 -605.00678m   10.3363n  700.0000m 
 -604.90678m   10.3266n  700.0000m 
 -604.80678m   10.3168n  700.0000m 
 -604.70678m   10.3071n  700.0000m 
 -604.60678m   10.2974n  700.0000m 
 -604.50678m   10.2877n  700.0000m 
 -604.40678m   10.2780n  700.0000m 
 -604.30678m   10.2683n  700.0000m 
 -604.20678m   10.2587n  700.0000m 
 -604.10678m   10.2490n  700.0000m 
 -604.00678m   10.2394n  700.0000m 
 -603.90678m   10.2297n  700.0000m 
 -603.80678m   10.2201n  700.0000m 
 -603.70678m   10.2105n  700.0000m 
 -603.60678m   10.2009n  700.0000m 
 -603.50678m   10.1913n  700.0000m 
 -603.40678m   10.1817n  700.0000m 
 -603.30678m   10.1721n  700.0000m 
 -603.20678m   10.1625n  700.0000m 
 -603.10678m   10.1529n  700.0000m 
 -603.00678m   10.1434n  700.0000m 
 -602.90678m   10.1339n  700.0000m 
 -602.80678m   10.1243n  700.0000m 
 -602.70678m   10.1148n  700.0000m 
 -602.60678m   10.1053n  700.0000m 
 -602.50678m   10.0958n  700.0000m 
 -602.40678m   10.0863n  700.0000m 
 -602.30678m   10.0768n  700.0000m 
 -602.20678m   10.0673n  700.0000m 
 -602.10678m   10.0579n  700.0000m 
 -602.00678m   10.0484n  700.0000m 
 -601.90678m   10.0390n  700.0000m 
 -601.80678m   10.0295n  700.0000m 
 -601.70678m   10.0201n  700.0000m 
 -601.60678m   10.0107n  700.0000m 
 -601.50678m   10.0013n  700.0000m 
 -601.40678m    9.9919n  700.0000m 
 -601.30678m    9.9826n  700.0000m 
 -601.20678m    9.9732n  700.0000m 
 -601.10678m    9.9638n  700.0000m 
 -601.00678m    9.9545n  700.0000m 
 -600.90678m    9.9452n  700.0000m 
 -600.80678m    9.9358n  700.0000m 
 -600.70678m    9.9265n  700.0000m 
 -600.60678m    9.9172n  700.0000m 
 -600.50678m    9.9079n  700.0000m 
 -600.40678m    9.8986n  700.0000m 
 -600.30678m    9.8894n  700.0000m 
 -600.20678m    9.8801n  700.0000m 
 -600.10678m    9.8709n  700.0000m 
 -600.00678m    9.8616n  700.0000m 
 -599.90678m    9.8524n  700.0000m 
 -599.80678m    9.8432n  700.0000m 
 -599.70678m    9.8340n  700.0000m 
 -599.60678m    9.8248n  700.0000m 
 -599.50678m    9.8156n  700.0000m 
 -599.40678m    9.8065n  700.0000m 
 -599.30678m    9.7973n  700.0000m 
 -599.20678m    9.7882n  700.0000m 
 -599.10678m    9.7791n  700.0000m 
 -599.00678m    9.7699n  700.0000m 
 -598.90678m    9.7608n  700.0000m 
 -598.80678m    9.7517n  700.0000m 
 -598.70678m    9.7427n  700.0000m 
 -598.60678m    9.7336n  700.0000m 
 -598.50678m    9.7245n  700.0000m 
 -598.40678m    9.7155n  700.0000m 
 -598.30678m    9.7065n  700.0000m 
 -598.20678m    9.6974n  700.0000m 
 -598.10678m    9.6884n  700.0000m 
 -598.00678m    9.6794n  700.0000m 
 -597.90678m    9.6704n  700.0000m 
 -597.80678m    9.6615n  700.0000m 
 -597.70678m    9.6525n  700.0000m 
 -597.60678m    9.6436n  700.0000m 
 -597.50678m    9.6346n  700.0000m 
 -597.40678m    9.6257n  700.0000m 
 -597.30678m    9.6168n  700.0000m 
 -597.20678m    9.6079n  700.0000m 
 -597.10678m    9.5990n  700.0000m 
 -597.00678m    9.5901n  700.0000m 
 -596.90678m    9.5813n  700.0000m 
 -596.80678m    9.5724n  700.0000m 
 -596.70678m    9.5636n  700.0000m 
 -596.60678m    9.5548n  700.0000m 
 -596.50678m    9.5460n  700.0000m 
 -596.40678m    9.5372n  700.0000m 
 -596.30678m    9.5284n  700.0000m 
 -596.20678m    9.5196n  700.0000m 
 -596.10678m    9.5109n  700.0000m 
 -596.00678m    9.5022n  700.0000m 
 -595.90678m    9.4934n  700.0000m 
 -595.80678m    9.4847n  700.0000m 
 -595.70678m    9.4760n  700.0000m 
 -595.60678m    9.4673n  700.0000m 
 -595.50678m    9.4587n  700.0000m 
 -595.40678m    9.4500n  700.0000m 
 -595.30678m    9.4414n  700.0000m 
 -595.20678m    9.4327n  700.0000m 
 -595.10678m    9.4241n  700.0000m 
 -595.00678m    9.4155n  700.0000m 
 -594.90678m    9.4069n  700.0000m 
 -594.80678m    9.3984n  700.0000m 
 -594.70678m    9.3898n  700.0000m 
 -594.60678m    9.3813n  700.0000m 
 -594.50678m    9.3727n  700.0000m 
 -594.40678m    9.3642n  700.0000m 
 -594.30678m    9.3557n  700.0000m 
 -594.20678m    9.3472n  700.0000m 
 -594.10678m    9.3387n  700.0000m 
 -594.00678m    9.3303n  700.0000m 
 -593.90678m    9.3218n  700.0000m 
 -593.80678m    9.3134n  700.0000m 
 -593.70678m    9.3050n  700.0000m 
 -593.60678m    9.2966n  700.0000m 
 -593.50678m    9.2882n  700.0000m 
 -593.40678m    9.2798n  700.0000m 
 -593.30678m    9.2715n  700.0000m 
 -593.20678m    9.2632n  700.0000m 
 -593.10678m    9.2548n  700.0000m 
 -593.00678m    9.2465n  700.0000m 
 -592.90678m    9.2382n  700.0000m 
 -592.80678m    9.2299n  700.0000m 
 -592.70678m    9.2217n  700.0000m 
 -592.60678m    9.2134n  700.0000m 
 -592.50678m    9.2052n  700.0000m 
 -592.40678m    9.1970n  700.0000m 
 -592.30678m    9.1888n  700.0000m 
 -592.20678m    9.1806n  700.0000m 
 -592.10678m    9.1724n  700.0000m 
 -592.00678m    9.1643n  700.0000m 
 -591.90678m    9.1561n  700.0000m 
 -591.80678m    9.1480n  700.0000m 
 -591.70678m    9.1399n  700.0000m 
 -591.60678m    9.1318n  700.0000m 
 -591.50678m    9.1237n  700.0000m 
 -591.40678m    9.1157n  700.0000m 
 -591.30678m    9.1076n  700.0000m 
 -591.20678m    9.0996n  700.0000m 
 -591.10678m    9.0916n  700.0000m 
 -591.00678m    9.0836n  700.0000m 
 -590.90678m    9.0756n  700.0000m 
 -590.80678m    9.0677n  700.0000m 
 -590.70678m    9.0597n  700.0000m 
 -590.60678m    9.0518n  700.0000m 
 -590.50678m    9.0439n  700.0000m 
 -590.40678m    9.0360n  700.0000m 
 -590.30678m    9.0281n  700.0000m 
 -590.20678m    9.0203n  700.0000m 
 -590.10678m    9.0124n  700.0000m 
 -590.00678m    9.0046n  700.0000m 
 -589.90678m    8.9968n  700.0000m 
 -589.80678m    8.9890n  700.0000m 
 -589.70678m    8.9812n  700.0000m 
 -589.60678m    8.9735n  700.0000m 
 -589.50678m    8.9658n  700.0000m 
 -589.40678m    8.9580n  700.0000m 
 -589.30678m    8.9503n  700.0000m 
 -589.20678m    8.9427n  700.0000m 
 -589.10678m    8.9350n  700.0000m 
 -589.00678m    8.9273n  700.0000m 
 -588.90678m    8.9197n  700.0000m 
 -588.80678m    8.9121n  700.0000m 
 -588.70678m    8.9045n  700.0000m 
 -588.60678m    8.8969n  700.0000m 
 -588.50678m    8.8894n  700.0000m 
 -588.40678m    8.8818n  700.0000m 
 -588.30678m    8.8743n  700.0000m 
 -588.20678m    8.8668n  700.0000m 
 -588.10678m    8.8593n  700.0000m 
 -588.00678m    8.8518n  700.0000m 
 -587.90678m    8.8444n  700.0000m 
 -587.80678m    8.8370n  700.0000m 
 -587.70678m    8.8296n  700.0000m 
 -587.60678m    8.8222n  700.0000m 
 -587.50678m    8.8148n  700.0000m 
 -587.40678m    8.8074n  700.0000m 
 -587.30678m    8.8001n  700.0000m 
 -587.20678m    8.7928n  700.0000m 
 -587.10678m    8.7855n  700.0000m 
 -587.00678m    8.7782n  700.0000m 
 -586.90678m    8.7709n  700.0000m 
 -586.80678m    8.7637n  700.0000m 
 -586.70678m    8.7565n  700.0000m 
 -586.60678m    8.7493n  700.0000m 
 -586.50678m    8.7421n  700.0000m 
 -586.40678m    8.7349n  700.0000m 
 -586.30678m    8.7278n  700.0000m 
 -586.20678m    8.7207n  700.0000m 
 -586.10678m    8.7136n  700.0000m 
 -586.00678m    8.7065n  700.0000m 
 -585.90678m    8.6994n  700.0000m 
 -585.80678m    8.6924n  700.0000m 
 -585.70678m    8.6854n  700.0000m 
 -585.60678m    8.6784n  700.0000m 
 -585.50678m    8.6714n  700.0000m 
 -585.40678m    8.6644n  700.0000m 
 -585.30678m    8.6575n  700.0000m 
 -585.20678m    8.6506n  700.0000m 
 -585.10678m    8.6437n  700.0000m 
 -585.00678m    8.6368n  700.0000m 
 -584.90678m    8.6299n  700.0000m 
 -584.80678m    8.6231n  700.0000m 
 -584.70678m    8.6163n  700.0000m 
 -584.60678m    8.6095n  700.0000m 
 -584.50678m    8.6027n  700.0000m 
 -584.40678m    8.5960n  700.0000m 
 -584.30678m    8.5892n  700.0000m 
 -584.20678m    8.5825n  700.0000m 
 -584.10678m    8.5758n  700.0000m 
 -584.00678m    8.5692n  700.0000m 
 -583.90678m    8.5625n  700.0000m 
 -583.80678m    8.5559n  700.0000m 
 -583.70678m    8.5493n  700.0000m 
 -583.60678m    8.5427n  700.0000m 
 -583.50678m    8.5362n  700.0000m 
 -583.40678m    8.5296n  700.0000m 
 -583.30678m    8.5231n  700.0000m 
 -583.20678m    8.5166n  700.0000m 
 -583.10678m    8.5102n  700.0000m 
 -583.00678m    8.5037n  700.0000m 
 -582.90678m    8.4973n  700.0000m 
 -582.80678m    8.4909n  700.0000m 
 -582.70678m    8.4845n  700.0000m 
 -582.60678m    8.4782n  700.0000m 
 -582.50678m    8.4718n  700.0000m 
 -582.40678m    8.4655n  700.0000m 
 -582.30678m    8.4592n  700.0000m 
 -582.20678m    8.4529n  700.0000m 
 -582.10678m    8.4467n  700.0000m 
 -582.00678m    8.4405n  700.0000m 
 -581.90678m    8.4343n  700.0000m 
 -581.80678m    8.4281n  700.0000m 
 -581.70678m    8.4220n  700.0000m 
 -581.60678m    8.4158n  700.0000m 
 -581.50678m    8.4097n  700.0000m 
 -581.40678m    8.4037n  700.0000m 
 -581.30678m    8.3976n  700.0000m 
 -581.20678m    8.3916n  700.0000m 
 -581.10678m    8.3856n  700.0000m 
 -581.00678m    8.3796n  700.0000m 
 -580.90678m    8.3736n  700.0000m 
 -580.80678m    8.3677n  700.0000m 
 -580.70678m    8.3618n  700.0000m 
 -580.60678m    8.3559n  700.0000m 
 -580.50678m    8.3500n  700.0000m 
 -580.40678m    8.3442n  700.0000m 
 -580.30678m    8.3383n  700.0000m 
 -580.20678m    8.3326n  700.0000m 
 -580.10678m    8.3268n  700.0000m 
 -580.00678m    8.3210n  700.0000m 
 -579.90678m    8.3153n  700.0000m 
 -579.80678m    8.3096n  700.0000m 
 -579.70678m    8.3040n  700.0000m 
 -579.60678m    8.2983n  700.0000m 
 -579.50678m    8.2927n  700.0000m 
 -579.40678m    8.2871n  700.0000m 
 -579.30678m    8.2815n  700.0000m 
 -579.20678m    8.2760n  700.0000m 
 -579.10678m    8.2705n  700.0000m 
 -579.00678m    8.2650n  700.0000m 
 -578.90678m    8.2595n  700.0000m 
 -578.80678m    8.2541n  700.0000m 
 -578.70678m    8.2487n  700.0000m 
 -578.60678m    8.2433n  700.0000m 
 -578.50678m    8.2379n  700.0000m 
 -578.40678m    8.2326n  700.0000m 
 -578.30678m    8.2273n  700.0000m 
 -578.20678m    8.2220n  700.0000m 
 -578.10678m    8.2167n  700.0000m 
 -578.00678m    8.2115n  700.0000m 
 -577.90678m    8.2063n  700.0000m 
 -577.80678m    8.2011n  700.0000m 
 -577.70678m    8.1960n  700.0000m 
 -577.60678m    8.1908n  700.0000m 
 -577.50678m    8.1857n  700.0000m 
 -577.40678m    8.1807n  700.0000m 
 -577.30678m    8.1756n  700.0000m 
 -577.20678m    8.1706n  700.0000m 
 -577.10678m    8.1656n  700.0000m 
 -577.00678m    8.1606n  700.0000m 
 -576.90678m    8.1557n  700.0000m 
 -576.80678m    8.1508n  700.0000m 
 -576.70678m    8.1459n  700.0000m 
 -576.60678m    8.1411n  700.0000m 
 -576.50678m    8.1362n  700.0000m 
 -576.40678m    8.1314n  700.0000m 
 -576.30678m    8.1267n  700.0000m 
 -576.20678m    8.1219n  700.0000m 
 -576.10678m    8.1172n  700.0000m 
 -576.00678m    8.1125n  700.0000m 
 -575.90678m    8.1078n  700.0000m 
 -575.80678m    8.1032n  700.0000m 
 -575.70678m    8.0986n  700.0000m 
 -575.60678m    8.0940n  700.0000m 
 -575.50678m    8.0895n  700.0000m 
 -575.40678m    8.0850n  700.0000m 
 -575.30678m    8.0805n  700.0000m 
 -575.20678m    8.0760n  700.0000m 
 -575.10678m    8.0716n  700.0000m 
 -575.00678m    8.0672n  700.0000m 
 -574.90678m    8.0628n  700.0000m 
 -574.80678m    8.0584n  700.0000m 
 -574.70678m    8.0541n  700.0000m 
 -574.60678m    8.0498n  700.0000m 
 -574.50678m    8.0456n  700.0000m 
 -574.40678m    8.0413n  700.0000m 
 -574.30678m    8.0371n  700.0000m 
 -574.20678m    8.0330n  700.0000m 
 -574.10678m    8.0288n  700.0000m 
 -574.00678m    8.0247n  700.0000m 
 -573.90678m    8.0206n  700.0000m 
 -573.80678m    8.0166n  700.0000m 
 -573.70678m    8.0126n  700.0000m 
 -573.60678m    8.0086n  700.0000m 
 -573.50678m    8.0046n  700.0000m 
 -573.40678m    8.0007n  700.0000m 
 -573.30678m    7.9968n  700.0000m 
 -573.20678m    7.9929n  700.0000m 
 -573.10678m    7.9890n  700.0000m 
 -573.00678m    7.9852n  700.0000m 
 -572.90678m    7.9815n  700.0000m 
 -572.80678m    7.9777n  700.0000m 
 -572.70678m    7.9740n  700.0000m 
 -572.60678m    7.9703n  700.0000m 
 -572.50678m    7.9666n  700.0000m 
 -572.40678m    7.9630n  700.0000m 
 -572.30678m    7.9594n  700.0000m 
 -572.20678m    7.9558n  700.0000m 
 -572.10678m    7.9523n  700.0000m 
 -572.00678m    7.9488n  700.0000m 
 -571.90678m    7.9453n  700.0000m 
 -571.80678m    7.9419n  700.0000m 
 -571.70678m    7.9385n  700.0000m 
 -571.60678m    7.9351n  700.0000m 
 -571.50678m    7.9318n  700.0000m 
 -571.40678m    7.9284n  700.0000m 
 -571.30678m    7.9252n  700.0000m 
 -571.20678m    7.9219n  700.0000m 
 -571.10678m    7.9187n  700.0000m 
 -571.00678m    7.9155n  700.0000m 
 -570.90678m    7.9123n  700.0000m 
 -570.80678m    7.9092n  700.0000m 
 -570.70678m    7.9061n  700.0000m 
 -570.60678m    7.9031n  700.0000m 
 -570.50678m    7.9000n  700.0000m 
 -570.40678m    7.8970n  700.0000m 
 -570.30678m    7.8941n  700.0000m 
 -570.20678m    7.8911n  700.0000m 
 -570.10678m    7.8882n  700.0000m 
 -570.00678m    7.8854n  700.0000m 
 -569.90678m    7.8826n  700.0000m 
 -569.80678m    7.8798n  700.0000m 
 -569.70678m    7.8770n  700.0000m 
 -569.60678m    7.8743n  700.0000m 
 -569.50678m    7.8716n  700.0000m 
 -569.40678m    7.8689n  700.0000m 
 -569.30678m    7.8663n  700.0000m 
 -569.20678m    7.8637n  700.0000m 
 -569.10678m    7.8611n  700.0000m 
 -569.00678m    7.8586n  700.0000m 
 -568.90678m    7.8561n  700.0000m 
 -568.80678m    7.8536n  700.0000m 
 -568.70678m    7.8512n  700.0000m 
 -568.60678m    7.8488n  700.0000m 
 -568.50678m    7.8464n  700.0000m 
 -568.40678m    7.8441n  700.0000m 
 -568.30678m    7.8418n  700.0000m 
 -568.20678m    7.8395n  700.0000m 
 -568.10678m    7.8373n  700.0000m 
 -568.00678m    7.8351n  700.0000m 
 -567.90678m    7.8329n  700.0000m 
 -567.80678m    7.8308n  700.0000m 
 -567.70678m    7.8287n  700.0000m 
 -567.60678m    7.8266n  700.0000m 
 -567.50678m    7.8246n  700.0000m 
 -567.40678m    7.8226n  700.0000m 
 -567.30678m    7.8207n  700.0000m 
 -567.20678m    7.8187n  700.0000m 
 -567.10678m    7.8169n  700.0000m 
 -567.00678m    7.8150n  700.0000m 
 -566.90678m    7.8132n  700.0000m 
 -566.80678m    7.8114n  700.0000m 
 -566.70678m    7.8097n  700.0000m 
 -566.60678m    7.8080n  700.0000m 
 -566.50678m    7.8063n  700.0000m 
 -566.40678m    7.8046n  700.0000m 
 -566.30678m    7.8030n  700.0000m 
 -566.20678m    7.8015n  700.0000m 
 -566.10678m    7.7999n  700.0000m 
 -566.00678m    7.7984n  700.0000m 
 -565.90678m    7.7970n  700.0000m 
 -565.80678m    7.7956n  700.0000m 
 -565.70678m    7.7942n  700.0000m 
 -565.60678m    7.7928n  700.0000m 
 -565.50678m    7.7915n  700.0000m 
 -565.40678m    7.7902n  700.0000m 
 -565.30678m    7.7890n  700.0000m 
 -565.20678m    7.7877n  700.0000m 
 -565.10678m    7.7866n  700.0000m 
 -565.00678m    7.7854n  700.0000m 
 -564.90678m    7.7843n  700.0000m 
 -564.80678m    7.7833n  700.0000m 
 -564.70678m    7.7822n  700.0000m 
 -564.60678m    7.7812n  700.0000m 
 -564.50678m    7.7803n  700.0000m 
 -564.40678m    7.7793n  700.0000m 
 -564.30678m    7.7785n  700.0000m 
 -564.20678m    7.7776n  700.0000m 
 -564.10678m    7.7768n  700.0000m 
 -564.00678m    7.7760n  700.0000m 
 -563.90678m    7.7753n  700.0000m 
 -563.80678m    7.7746n  700.0000m 
 -563.70678m    7.7739n  700.0000m 
 -563.60678m    7.7733n  700.0000m 
 -563.50678m    7.7727n  700.0000m 
 -563.40678m    7.7721n  700.0000m 
 -563.30678m    7.7716n  700.0000m 
 -563.20678m    7.7711n  700.0000m 
 -563.10678m    7.7707n  700.0000m 
 -563.00678m    7.7703n  700.0000m 
 -562.90678m    7.7699n  700.0000m 
 -562.80678m    7.7696n  700.0000m 
 -562.70678m    7.7693n  700.0000m 
 -562.60678m    7.7690n  700.0000m 
 -562.50678m    7.7688n  700.0000m 
 -562.40678m    7.7686n  700.0000m 
 -562.30678m    7.7685n  700.0000m 
 -562.20678m    7.7684n  700.0000m 
 -562.10678m    7.7683n  700.0000m 
 -562.00678m    7.7683n  700.0000m 
 -561.90678m    7.7683n  700.0000m 
 -561.80678m    7.7683n  700.0000m 
 -561.70678m    7.7684n  700.0000m 
 -561.60678m    7.7685n  700.0000m 
 -561.50678m    7.7687n  700.0000m 
 -561.40678m    7.7688n  700.0000m 
 -561.30678m    7.7691n  700.0000m 
 -561.20678m    7.7693n  700.0000m 
 -561.10678m    7.7697n  700.0000m 
 -561.00678m    7.7700n  700.0000m 
 -560.90678m    7.7704n  700.0000m 
 -560.80678m    7.7708n  700.0000m 
 -560.70678m    7.7713n  700.0000m 
 -560.60678m    7.7718n  700.0000m 
 -560.50678m    7.7723n  700.0000m 
 -560.40678m    7.7729n  700.0000m 
 -560.30678m    7.7735n  700.0000m 
 -560.20678m    7.7741n  700.0000m 
 -560.10678m    7.7748n  700.0000m 
 -560.00678m    7.7756n  700.0000m 
 -559.90678m    7.7763n  700.0000m 
 -559.80678m    7.7771n  700.0000m 
 -559.70678m    7.7780n  700.0000m 
 -559.60678m    7.7789n  700.0000m 
 -559.50678m    7.7798n  700.0000m 
 -559.40678m    7.7807n  700.0000m 
 -559.30678m    7.7817n  700.0000m 
 -559.20678m    7.7828n  700.0000m 
 -559.10678m    7.7838n  700.0000m 
 -559.00678m    7.7850n  700.0000m 
 -558.90678m    7.7861n  700.0000m 
 -558.80678m    7.7873n  700.0000m 
 -558.70678m    7.7885n  700.0000m 
 -558.60678m    7.7898n  700.0000m 
 -558.50678m    7.7911n  700.0000m 
 -558.40678m    7.7925n  700.0000m 
 -558.30678m    7.7939n  700.0000m 
 -558.20678m    7.7953n  700.0000m 
 -558.10678m    7.7968n  700.0000m 
 -558.00678m    7.7983n  700.0000m 
 -557.90678m    7.7998n  700.0000m 
 -557.80678m    7.8014n  700.0000m 
 -557.70678m    7.8030n  700.0000m 
 -557.60678m    7.8047n  700.0000m 
 -557.50678m    7.8064n  700.0000m 
 -557.40678m    7.8081n  700.0000m 
 -557.30678m    7.8099n  700.0000m 
 -557.20678m    7.8117n  700.0000m 
 -557.10678m    7.8136n  700.0000m 
 -557.00678m    7.8155n  700.0000m 
 -556.90678m    7.8174n  700.0000m 
 -556.80678m    7.8194n  700.0000m 
 -556.70678m    7.8214n  700.0000m 
 -556.60678m    7.8235n  700.0000m 
 -556.50678m    7.8256n  700.0000m 
 -556.40678m    7.8277n  700.0000m 
 -556.30678m    7.8299n  700.0000m 
 -556.20678m    7.8321n  700.0000m 
 -556.10678m    7.8344n  700.0000m 
 -556.00678m    7.8367n  700.0000m 
 -555.90678m    7.8390n  700.0000m 
 -555.80678m    7.8414n  700.0000m 
 -555.70678m    7.8438n  700.0000m 
 -555.60678m    7.8463n  700.0000m 
 -555.50678m    7.8488n  700.0000m 
 -555.40678m    7.8513n  700.0000m 
 -555.30678m    7.8539n  700.0000m 
 -555.20678m    7.8565n  700.0000m 
 -555.10678m    7.8592n  700.0000m 
 -555.00678m    7.8619n  700.0000m 
 -554.90678m    7.8646n  700.0000m 
 -554.80678m    7.8674n  700.0000m 
 -554.70678m    7.8702n  700.0000m 
 -554.60678m    7.8731n  700.0000m 
 -554.50678m    7.8760n  700.0000m 
 -554.40678m    7.8789n  700.0000m 
 -554.30678m    7.8819n  700.0000m 
 -554.20678m    7.8849n  700.0000m 
 -554.10678m    7.8880n  700.0000m 
 -554.00678m    7.8911n  700.0000m 
 -553.90678m    7.8942n  700.0000m 
 -553.80678m    7.8974n  700.0000m 
 -553.70678m    7.9006n  700.0000m 
 -553.60678m    7.9039n  700.0000m 
 -553.50678m    7.9072n  700.0000m 
 -553.40678m    7.9105n  700.0000m 
 -553.30678m    7.9139n  700.0000m 
 -553.20678m    7.9174n  700.0000m 
 -553.10678m    7.9208n  700.0000m 
 -553.00678m    7.9243n  700.0000m 
 -552.90678m    7.9279n  700.0000m 
 -552.80678m    7.9315n  700.0000m 
 -552.70678m    7.9351n  700.0000m 
 -552.60678m    7.9388n  700.0000m 
 -552.50678m    7.9425n  700.0000m 
 -552.40678m    7.9463n  700.0000m 
 -552.30678m    7.9501n  700.0000m 
 -552.20678m    7.9539n  700.0000m 
 -552.10678m    7.9578n  700.0000m 
 -552.00678m    7.9617n  700.0000m 
 -551.90678m    7.9657n  700.0000m 
 -551.80678m    7.9697n  700.0000m 
 -551.70678m    7.9738n  700.0000m 
 -551.60678m    7.9779n  700.0000m 
 -551.50678m    7.9820n  700.0000m 
 -551.40678m    7.9862n  700.0000m 
 -551.30678m    7.9904n  700.0000m 
 -551.20678m    7.9947n  700.0000m 
 -551.10678m    7.9990n  700.0000m 
 -551.00678m    8.0033n  700.0000m 
 -550.90678m    8.0077n  700.0000m 
 -550.80678m    8.0121n  700.0000m 
 -550.70678m    8.0166n  700.0000m 
 -550.60678m    8.0211n  700.0000m 
 -550.50678m    8.0257n  700.0000m 
 -550.40678m    8.0303n  700.0000m 
 -550.30678m    8.0349n  700.0000m 
 -550.20678m    8.0396n  700.0000m 
 -550.10678m    8.0443n  700.0000m 
 -550.00678m    8.0491n  700.0000m 
 -549.90678m    8.0539n  700.0000m 
 -549.80678m    8.0588n  700.0000m 
 -549.70678m    8.0637n  700.0000m 
 -549.60678m    8.0686n  700.0000m 
 -549.50678m    8.0736n  700.0000m 
 -549.40678m    8.0787n  700.0000m 
 -549.30678m    8.0837n  700.0000m 
 -549.20678m    8.0888n  700.0000m 
 -549.10678m    8.0940n  700.0000m 
 -549.00678m    8.0992n  700.0000m 
 -548.90678m    8.1045n  700.0000m 
 -548.80678m    8.1098n  700.0000m 
 -548.70678m    8.1151n  700.0000m 
 -548.60678m    8.1205n  700.0000m 
 -548.50678m    8.1259n  700.0000m 
 -548.40678m    8.1314n  700.0000m 
 -548.30678m    8.1369n  700.0000m 
 -548.20678m    8.1425n  700.0000m 
 -548.10678m    8.1481n  700.0000m 
 -548.00678m    8.1537n  700.0000m 
 -547.90678m    8.1594n  700.0000m 
 -547.80678m    8.1652n  700.0000m 
 -547.70678m    8.1710n  700.0000m 
 -547.60678m    8.1768n  700.0000m 
 -547.50678m    8.1827n  700.0000m 
 -547.40678m    8.1886n  700.0000m 
 -547.30678m    8.1946n  700.0000m 
 -547.20678m    8.2006n  700.0000m 
 -547.10678m    8.2067n  700.0000m 
 -547.00678m    8.2128n  700.0000m 
 -546.90678m    8.2190n  700.0000m 
 -546.80678m    8.2252n  700.0000m 
 -546.70678m    8.2314n  700.0000m 
 -546.60678m    8.2377n  700.0000m 
 -546.50678m    8.2441n  700.0000m 
 -546.40678m    8.2505n  700.0000m 
 -546.30678m    8.2569n  700.0000m 
 -546.20678m    8.2634n  700.0000m 
 -546.10678m    8.2700n  700.0000m 
 -546.00678m    8.2765n  700.0000m 
 -545.90678m    8.2832n  700.0000m 
 -545.80678m    8.2899n  700.0000m 
 -545.70678m    8.2966n  700.0000m 
 -545.60678m    8.3034n  700.0000m 
 -545.50678m    8.3102n  700.0000m 
 -545.40678m    8.3171n  700.0000m 
 -545.30678m    8.3240n  700.0000m 
 -545.20678m    8.3310n  700.0000m 
 -545.10678m    8.3380n  700.0000m 
 -545.00678m    8.3451n  700.0000m 
 -544.90678m    8.3523n  700.0000m 
 -544.80678m    8.3594n  700.0000m 
 -544.70678m    8.3667n  700.0000m 
 -544.60678m    8.3740n  700.0000m 
 -544.50678m    8.3813n  700.0000m 
 -544.40678m    8.3887n  700.0000m 
 -544.30678m    8.3961n  700.0000m 
 -544.20678m    8.4036n  700.0000m 
 -544.10678m    8.4112n  700.0000m 
 -544.00678m    8.4188n  700.0000m 
 -543.90678m    8.4264n  700.0000m 
 -543.80678m    8.4341n  700.0000m 
 -543.70678m    8.4419n  700.0000m 
 -543.60678m    8.4497n  700.0000m 
 -543.50678m    8.4575n  700.0000m 
 -543.40678m    8.4654n  700.0000m 
 -543.30678m    8.4734n  700.0000m 
 -543.20678m    8.4814n  700.0000m 
 -543.10678m    8.4895n  700.0000m 
 -543.00678m    8.4977n  700.0000m 
 -542.90678m    8.5058n  700.0000m 
 -542.80678m    8.5141n  700.0000m 
 -542.70678m    8.5224n  700.0000m 
 -542.60678m    8.5307n  700.0000m 
 -542.50678m    8.5392n  700.0000m 
 -542.40678m    8.5476n  700.0000m 
 -542.30678m    8.5562n  700.0000m 
 -542.20678m    8.5647n  700.0000m 
 -542.10678m    8.5734n  700.0000m 
 -542.00678m    8.5821n  700.0000m 
 -541.90678m    8.5908n  700.0000m 
 -541.80678m    8.5996n  700.0000m 
 -541.70678m    8.6085n  700.0000m 
 -541.60678m    8.6175n  700.0000m 
 -541.50678m    8.6264n  700.0000m 
 -541.40678m    8.6355n  700.0000m 
 -541.30678m    8.6446n  700.0000m 
 -541.20678m    8.6538n  700.0000m 
 -541.10678m    8.6630n  700.0000m 
 -541.00678m    8.6723n  700.0000m 
 -540.90678m    8.6817n  700.0000m 
 -540.80678m    8.6911n  700.0000m 
 -540.70678m    8.7006n  700.0000m 
 -540.60678m    8.7101n  700.0000m 
 -540.50678m    8.7197n  700.0000m 
 -540.40678m    8.7294n  700.0000m 
 -540.30678m    8.7391n  700.0000m 
 -540.20678m    8.7489n  700.0000m 
 -540.10678m    8.7587n  700.0000m 
 -540.00678m    8.7687n  700.0000m 
 -539.90678m    8.7787n  700.0000m 
 -539.80678m    8.7887n  700.0000m 
 -539.70678m    8.7988n  700.0000m 
 -539.60678m    8.8090n  700.0000m 
 -539.50678m    8.8192n  700.0000m 
 -539.40678m    8.8296n  700.0000m 
 -539.30678m    8.8399n  700.0000m 
 -539.20678m    8.8504n  700.0000m 
 -539.10678m    8.8609n  700.0000m 
 -539.00678m    8.8715n  700.0000m 
 -538.90678m    8.8821n  700.0000m 
 -538.80678m    8.8928n  700.0000m 
 -538.70678m    8.9036n  700.0000m 
 -538.60678m    8.9145n  700.0000m 
 -538.50678m    8.9254n  700.0000m 
 -538.40678m    8.9364n  700.0000m 
 -538.30678m    8.9475n  700.0000m 
 -538.20678m    8.9586n  700.0000m 
 -538.10678m    8.9698n  700.0000m 
 -538.00678m    8.9811n  700.0000m 
 -537.90678m    8.9925n  700.0000m 
 -537.80678m    9.0039n  700.0000m 
 -537.70678m    9.0154n  700.0000m 
 -537.60678m    9.0270n  700.0000m 
 -537.50678m    9.0386n  700.0000m 
 -537.40678m    9.0503n  700.0000m 
 -537.30678m    9.0621n  700.0000m 
 -537.20678m    9.0740n  700.0000m 
 -537.10678m    9.0859n  700.0000m 
 -537.00678m    9.0979n  700.0000m 
 -536.90678m    9.1100n  700.0000m 
 -536.80678m    9.1222n  700.0000m 
 -536.70678m    9.1345n  700.0000m 
 -536.60678m    9.1468n  700.0000m 
 -536.50678m    9.1592n  700.0000m 
 -536.40678m    9.1717n  700.0000m 
 -536.30678m    9.1842n  700.0000m 
 -536.20678m    9.1969n  700.0000m 
 -536.10678m    9.2096n  700.0000m 
 -536.00678m    9.2224n  700.0000m 
 -535.90678m    9.2353n  700.0000m 
 -535.80678m    9.2482n  700.0000m 
 -535.70678m    9.2613n  700.0000m 
 -535.60678m    9.2744n  700.0000m 
 -535.50678m    9.2876n  700.0000m 
 -535.40678m    9.3009n  700.0000m 
 -535.30678m    9.3143n  700.0000m 
 -535.20678m    9.3277n  700.0000m 
 -535.10678m    9.3412n  700.0000m 
 -535.00678m    9.3549n  700.0000m 
 -534.90678m    9.3686n  700.0000m 
 -534.80678m    9.3824n  700.0000m 
 -534.70678m    9.3962n  700.0000m 
 -534.60678m    9.4102n  700.0000m 
 -534.50678m    9.4243n  700.0000m 
 -534.40678m    9.4384n  700.0000m 
 -534.30678m    9.4526n  700.0000m 
 -534.20678m    9.4670n  700.0000m 
 -534.10678m    9.4814n  700.0000m 
 -534.00678m    9.4959n  700.0000m 
 -533.90678m    9.5104n  700.0000m 
 -533.80678m    9.5251n  700.0000m 
 -533.70678m    9.5399n  700.0000m 
 -533.60678m    9.5547n  700.0000m 
 -533.50678m    9.5697n  700.0000m 
 -533.40678m    9.5847n  700.0000m 
 -533.30678m    9.5999n  700.0000m 
 -533.20678m    9.6151n  700.0000m 
 -533.10678m    9.6304n  700.0000m 
 -533.00678m    9.6458n  700.0000m 
 -532.90678m    9.6613n  700.0000m 
 -532.80678m    9.6769n  700.0000m 
 -532.70678m    9.6926n  700.0000m 
 -532.60678m    9.7084n  700.0000m 
 -532.50678m    9.7243n  700.0000m 
 -532.40678m    9.7403n  700.0000m 
 -532.30678m    9.7564n  700.0000m 
 -532.20678m    9.7726n  700.0000m 
 -532.10678m    9.7889n  700.0000m 
 -532.00678m    9.8053n  700.0000m 
 -531.90678m    9.8218n  700.0000m 
 -531.80678m    9.8384n  700.0000m 
 -531.70678m    9.8551n  700.0000m 
 -531.60678m    9.8719n  700.0000m 
 -531.50678m    9.8888n  700.0000m 
 -531.40678m    9.9058n  700.0000m 
 -531.30678m    9.9229n  700.0000m 
 -531.20678m    9.9401n  700.0000m 
 -531.10678m    9.9574n  700.0000m 
 -531.00678m    9.9748n  700.0000m 
 -530.90678m    9.9923n  700.0000m 
 -530.80678m   10.0100n  700.0000m 
 -530.70678m   10.0277n  700.0000m 
 -530.60678m   10.0456n  700.0000m 
 -530.50678m   10.0635n  700.0000m 
 -530.40678m   10.0816n  700.0000m 
 -530.30678m   10.0998n  700.0000m 
 -530.20678m   10.1180n  700.0000m 
 -530.10678m   10.1364n  700.0000m 
 -530.00678m   10.1550n  700.0000m 
 -529.90678m   10.1736n  700.0000m 
 -529.80678m   10.1923n  700.0000m 
 -529.70678m   10.2112n  700.0000m 
 -529.60678m   10.2301n  700.0000m 
 -529.50678m   10.2492n  700.0000m 
 -529.40678m   10.2684n  700.0000m 
 -529.30678m   10.2877n  700.0000m 
 -529.20678m   10.3071n  700.0000m 
 -529.10678m   10.3267n  700.0000m 
 -529.00678m   10.3463n  700.0000m 
 -528.90678m   10.3661n  700.0000m 
 -528.80678m   10.3860n  700.0000m 
 -528.70678m   10.4060n  700.0000m 
 -528.60678m   10.4262n  700.0000m 
 -528.50678m   10.4464n  700.0000m 
 -528.40678m   10.4668n  700.0000m 
 -528.30678m   10.4873n  700.0000m 
 -528.20678m   10.5079n  700.0000m 
 -528.10678m   10.5287n  700.0000m 
 -528.00678m   10.5496n  700.0000m 
 -527.90678m   10.5706n  700.0000m 
 -527.80678m   10.5917n  700.0000m 
 -527.70678m   10.6130n  700.0000m 
 -527.60678m   10.6343n  700.0000m 
 -527.50678m   10.6558n  700.0000m 
 -527.40678m   10.6775n  700.0000m 
 -527.30678m   10.6993n  700.0000m 
 -527.20678m   10.7212n  700.0000m 
 -527.10678m   10.7432n  700.0000m 
 -527.00678m   10.7654n  700.0000m 
 -526.90678m   10.7877n  700.0000m 
 -526.80678m   10.8101n  700.0000m 
 -526.70678m   10.8327n  700.0000m 
 -526.60678m   10.8554n  700.0000m 
 -526.50678m   10.8782n  700.0000m 
 -526.40678m   10.9012n  700.0000m 
 -526.30678m   10.9243n  700.0000m 
 -526.20678m   10.9475n  700.0000m 
 -526.10678m   10.9709n  700.0000m 
 -526.00678m   10.9944n  700.0000m 
 -525.90678m   11.0181n  700.0000m 
 -525.80678m   11.0419n  700.0000m 
 -525.70678m   11.0659n  700.0000m 
 -525.60678m   11.0900n  700.0000m 
 -525.50678m   11.1142n  700.0000m 
 -525.40678m   11.1386n  700.0000m 
 -525.30678m   11.1631n  700.0000m 
 -525.20678m   11.1878n  700.0000m 
 -525.10678m   11.2126n  700.0000m 
 -525.00678m   11.2376n  700.0000m 
 -524.90678m   11.2627n  700.0000m 
 -524.80678m   11.2880n  700.0000m 
 -524.70678m   11.3134n  700.0000m 
 -524.60678m   11.3389n  700.0000m 
 -524.50678m   11.3647n  700.0000m 
 -524.40678m   11.3905n  700.0000m 
 -524.30678m   11.4166n  700.0000m 
 -524.20678m   11.4427n  700.0000m 
 -524.10678m   11.4691n  700.0000m 
 -524.00678m   11.4956n  700.0000m 
 -523.90678m   11.5222n  700.0000m 
 -523.80678m   11.5490n  700.0000m 
 -523.70678m   11.5760n  700.0000m 
 -523.60678m   11.6031n  700.0000m 
 -523.50678m   11.6304n  700.0000m 
 -523.40678m   11.6579n  700.0000m 
 -523.30678m   11.6855n  700.0000m 
 -523.20678m   11.7132n  700.0000m 
 -523.10678m   11.7412n  700.0000m 
 -523.00678m   11.7693n  700.0000m 
 -522.90678m   11.7976n  700.0000m 
 -522.80678m   11.8260n  700.0000m 
 -522.70678m   11.8546n  700.0000m 
 -522.60678m   11.8834n  700.0000m 
 -522.50678m   11.9123n  700.0000m 
 -522.40678m   11.9414n  700.0000m 
 -522.30678m   11.9707n  700.0000m 
 -522.20678m   12.0002n  700.0000m 
 -522.10678m   12.0298n  700.0000m 
 -522.00678m   12.0596n  700.0000m 
 -521.90678m   12.0896n  700.0000m 
 -521.80678m   12.1198n  700.0000m 
 -521.70678m   12.1501n  700.0000m 
 -521.60678m   12.1806n  700.0000m 
 -521.50678m   12.2113n  700.0000m 
 -521.40678m   12.2422n  700.0000m 
 -521.30678m   12.2733n  700.0000m 
 -521.20678m   12.3045n  700.0000m 
 -521.10678m   12.3360n  700.0000m 
 -521.00678m   12.3676n  700.0000m 
 -520.90678m   12.3994n  700.0000m 
 -520.80678m   12.4314n  700.0000m 
 -520.70678m   12.4635n  700.0000m 
 -520.60678m   12.4959n  700.0000m 
 -520.50678m   12.5284n  700.0000m 
 -520.40678m   12.5612n  700.0000m 
 -520.30678m   12.5941n  700.0000m 
 -520.20678m   12.6273n  700.0000m 
 -520.10678m   12.6606n  700.0000m 
 -520.00678m   12.6941n  700.0000m 
 -519.90678m   12.7278n  700.0000m 
 -519.80678m   12.7618n  700.0000m 
 -519.70678m   12.7959n  700.0000m 
 -519.60678m   12.8302n  700.0000m 
 -519.50678m   12.8647n  700.0000m 
 -519.40678m   12.8994n  700.0000m 
 -519.30678m   12.9344n  700.0000m 
 -519.20678m   12.9695n  700.0000m 
 -519.10678m   13.0048n  700.0000m 
 -519.00678m   13.0404n  700.0000m 
 -518.90678m   13.0761n  700.0000m 
 -518.80678m   13.1121n  700.0000m 
 -518.70678m   13.1483n  700.0000m 
 -518.60678m   13.1846n  700.0000m 
 -518.50678m   13.2212n  700.0000m 
 -518.40678m   13.2580n  700.0000m 
 -518.30678m   13.2951n  700.0000m 
 -518.20678m   13.3323n  700.0000m 
 -518.10678m   13.3698n  700.0000m 
 -518.00678m   13.4075n  700.0000m 
 -517.90678m   13.4454n  700.0000m 
 -517.80678m   13.4835n  700.0000m 
 -517.70678m   13.5218n  700.0000m 
 -517.60678m   13.5604n  700.0000m 
 -517.50678m   13.5992n  700.0000m 
 -517.40678m   13.6382n  700.0000m 
 -517.30678m   13.6775n  700.0000m 
 -517.20678m   13.7169n  700.0000m 
 -517.10678m   13.7567n  700.0000m 
 -517.00678m   13.7966n  700.0000m 
 -516.90678m   13.8368n  700.0000m 
 -516.80678m   13.8772n  700.0000m 
 -516.70678m   13.9178n  700.0000m 
 -516.60678m   13.9587n  700.0000m 
 -516.50678m   13.9998n  700.0000m 
 -516.40678m   14.0412n  700.0000m 
 -516.30678m   14.0828n  700.0000m 
 -516.20678m   14.1247n  700.0000m 
 -516.10678m   14.1667n  700.0000m 
 -516.00678m   14.2091n  700.0000m 
 -515.90678m   14.2517n  700.0000m 
 -515.80678m   14.2945n  700.0000m 
 -515.70678m   14.3376n  700.0000m 
 -515.60678m   14.3809n  700.0000m 
 -515.50678m   14.4245n  700.0000m 
 -515.40678m   14.4683n  700.0000m 
 -515.30678m   14.5124n  700.0000m 
 -515.20678m   14.5568n  700.0000m 
 -515.10678m   14.6014n  700.0000m 
 -515.00678m   14.6463n  700.0000m 
 -514.90678m   14.6914n  700.0000m 
 -514.80678m   14.7368n  700.0000m 
 -514.70678m   14.7824n  700.0000m 
 -514.60678m   14.8284n  700.0000m 
 -514.50678m   14.8746n  700.0000m 
 -514.40678m   14.9210n  700.0000m 
 -514.30678m   14.9677n  700.0000m 
 -514.20678m   15.0147n  700.0000m 
 -514.10678m   15.0620n  700.0000m 
 -514.00678m   15.1096n  700.0000m 
 -513.90678m   15.1574n  700.0000m 
 -513.80678m   15.2055n  700.0000m 
 -513.70678m   15.2539n  700.0000m 
 -513.60678m   15.3025n  700.0000m 
 -513.50678m   15.3515n  700.0000m 
 -513.40678m   15.4007n  700.0000m 
 -513.30678m   15.4503n  700.0000m 
 -513.20678m   15.5001n  700.0000m 
 -513.10678m   15.5502n  700.0000m 
 -513.00678m   15.6005n  700.0000m 
 -512.90678m   15.6512n  700.0000m 
 -512.80678m   15.7022n  700.0000m 
 -512.70678m   15.7535n  700.0000m 
 -512.60678m   15.8050n  700.0000m 
 -512.50678m   15.8569n  700.0000m 
 -512.40678m   15.9091n  700.0000m 
 -512.30678m   15.9615n  700.0000m 
 -512.20678m   16.0143n  700.0000m 
 -512.10678m   16.0674n  700.0000m 
 -512.00678m   16.1208n  700.0000m 
 -511.90678m   16.1745n  700.0000m 
 -511.80678m   16.2285n  700.0000m 
 -511.70678m   16.2828n  700.0000m 
 -511.60678m   16.3375n  700.0000m 
 -511.50678m   16.3924n  700.0000m 
 -511.40678m   16.4477n  700.0000m 
 -511.30678m   16.5033n  700.0000m 
 -511.20678m   16.5592n  700.0000m 
 -511.10678m   16.6155n  700.0000m 
 -511.00678m   16.6720n  700.0000m 
 -510.90678m   16.7289n  700.0000m 
 -510.80678m   16.7862n  700.0000m 
 -510.70678m   16.8437n  700.0000m 
 -510.60678m   16.9016n  700.0000m 
 -510.50678m   16.9598n  700.0000m 
 -510.40678m   17.0184n  700.0000m 
 -510.30678m   17.0773n  700.0000m 
 -510.20678m   17.1366n  700.0000m 
 -510.10678m   17.1961n  700.0000m 
 -510.00678m   17.2561n  700.0000m 
 -509.90678m   17.3164n  700.0000m 
 -509.80678m   17.3770n  700.0000m 
 -509.70678m   17.4380n  700.0000m 
 -509.60678m   17.4993n  700.0000m 
 -509.50678m   17.5610n  700.0000m 
 -509.40678m   17.6230n  700.0000m 
 -509.30678m   17.6855n  700.0000m 
 -509.20678m   17.7482n  700.0000m 
 -509.10678m   17.8114n  700.0000m 
 -509.00678m   17.8748n  700.0000m 
 -508.90678m   17.9387n  700.0000m 
 -508.80678m   18.0029n  700.0000m 
 -508.70678m   18.0675n  700.0000m 
 -508.60678m   18.1325n  700.0000m 
 -508.50678m   18.1979n  700.0000m 
 -508.40678m   18.2636n  700.0000m 
 -508.30678m   18.3297n  700.0000m 
 -508.20678m   18.3962n  700.0000m 
 -508.10678m   18.4631n  700.0000m 
 -508.00678m   18.5304n  700.0000m 
 -507.90678m   18.5980n  700.0000m 
 -507.80678m   18.6661n  700.0000m 
 -507.70678m   18.7345n  700.0000m 
 -507.60678m   18.8033n  700.0000m 
 -507.50678m   18.8726n  700.0000m 
 -507.40678m   18.9422n  700.0000m 
 -507.30678m   19.0123n  700.0000m 
 -507.20678m   19.0827n  700.0000m 
 -507.10678m   19.1535n  700.0000m 
 -507.00678m   19.2248n  700.0000m 
 -506.90678m   19.2965n  700.0000m 
 -506.80678m   19.3686n  700.0000m 
 -506.70678m   19.4411n  700.0000m 
 -506.60678m   19.5140n  700.0000m 
 -506.50678m   19.5873n  700.0000m 
 -506.40678m   19.6611n  700.0000m 
 -506.30678m   19.7353n  700.0000m 
 -506.20678m   19.8099n  700.0000m 
 -506.10678m   19.8849n  700.0000m 
 -506.00678m   19.9604n  700.0000m 
 -505.90678m   20.0363n  700.0000m 
 -505.80678m   20.1127n  700.0000m 
 -505.70678m   20.1895n  700.0000m 
 -505.60678m   20.2667n  700.0000m 
 -505.50678m   20.3444n  700.0000m 
 -505.40678m   20.4226n  700.0000m 
 -505.30678m   20.5012n  700.0000m 
 -505.20678m   20.5802n  700.0000m 
 -505.10678m   20.6597n  700.0000m 
 -505.00678m   20.7396n  700.0000m 
 -504.90678m   20.8201n  700.0000m 
 -504.80678m   20.9010n  700.0000m 
 -504.70678m   20.9823n  700.0000m 
 -504.60678m   21.0641n  700.0000m 
 -504.50678m   21.1464n  700.0000m 
 -504.40678m   21.2292n  700.0000m 
 -504.30678m   21.3124n  700.0000m 
 -504.20678m   21.3961n  700.0000m 
 -504.10678m   21.4804n  700.0000m 
 -504.00678m   21.5650n  700.0000m 
 -503.90678m   21.6502n  700.0000m 
 -503.80678m   21.7359n  700.0000m 
 -503.70678m   21.8221n  700.0000m 
 -503.60678m   21.9087n  700.0000m 
 -503.50678m   21.9959n  700.0000m 
 -503.40678m   22.0836n  700.0000m 
 -503.30678m   22.1717n  700.0000m 
 -503.20678m   22.2604n  700.0000m 
 -503.10678m   22.3496n  700.0000m 
 -503.00678m   22.4393n  700.0000m 
 -502.90678m   22.5296n  700.0000m 
 -502.80678m   22.6203n  700.0000m 
 -502.70678m   22.7116n  700.0000m 
 -502.60678m   22.8034n  700.0000m 
 -502.50678m   22.8957n  700.0000m 
 -502.40678m   22.9886n  700.0000m 
 -502.30678m   23.0819n  700.0000m 
 -502.20678m   23.1759n  700.0000m 
 -502.10678m   23.2704n  700.0000m 
 -502.00678m   23.3654n  700.0000m 
 -501.90678m   23.4609n  700.0000m 
 -501.80678m   23.5571n  700.0000m 
 -501.70678m   23.6537n  700.0000m 
 -501.60678m   23.7510n  700.0000m 
 -501.50678m   23.8487n  700.0000m 
 -501.40678m   23.9471n  700.0000m 
 -501.30678m   24.0460n  700.0000m 
 -501.20678m   24.1455n  700.0000m 
 -501.10678m   24.2456n  700.0000m 
 -501.00678m   24.3462n  700.0000m 
 -500.90678m   24.4474n  700.0000m 
 -500.80678m   24.5492n  700.0000m 
 -500.70678m   24.6516n  700.0000m 
 -500.60678m   24.7546n  700.0000m 
 -500.50678m   24.8582n  700.0000m 
 -500.40678m   24.9624n  700.0000m 
 -500.30678m   25.0671n  700.0000m 
 -500.20678m   25.1725n  700.0000m 
 -500.10678m   25.2785n  700.0000m 
 -500.00678m   25.3851n  700.0000m 
 -499.90678m   25.4923n  700.0000m 
 -499.80678m   25.6001n  700.0000m 
 -499.70678m   25.7086n  700.0000m 
 -499.60678m   25.8176n  700.0000m 
 -499.50678m   25.9273n  700.0000m 
 -499.40678m   26.0377n  700.0000m 
 -499.30678m   26.1486n  700.0000m 
 -499.20678m   26.2602n  700.0000m 
 -499.10678m   26.3725n  700.0000m 
 -499.00678m   26.4854n  700.0000m 
 -498.90678m   26.5989n  700.0000m 
 -498.80678m   26.7131n  700.0000m 
 -498.70678m   26.8280n  700.0000m 
 -498.60678m   26.9435n  700.0000m 
 -498.50678m   27.0597n  700.0000m 
 -498.40678m   27.1766n  700.0000m 
 -498.30678m   27.2941n  700.0000m 
 -498.20678m   27.4123n  700.0000m 
 -498.10678m   27.5312n  700.0000m 
 -498.00678m   27.6508n  700.0000m 
 -497.90678m   27.7710n  700.0000m 
 -497.80678m   27.8920n  700.0000m 
 -497.70678m   28.0136n  700.0000m 
 -497.60678m   28.1360n  700.0000m 
 -497.50678m   28.2591n  700.0000m 
 -497.40678m   28.3828n  700.0000m 
 -497.30678m   28.5073n  700.0000m 
 -497.20678m   28.6325n  700.0000m 
 -497.10678m   28.7584n  700.0000m 
 -497.00678m   28.8851n  700.0000m 
 -496.90678m   29.0124n  700.0000m 
 -496.80678m   29.1405n  700.0000m 
 -496.70678m   29.2694n  700.0000m 
 -496.60678m   29.3990n  700.0000m 
 -496.50678m   29.5293n  700.0000m 
 -496.40678m   29.6604n  700.0000m 
 -496.30678m   29.7922n  700.0000m 
 -496.20678m   29.9248n  700.0000m 
 -496.10678m   30.0582n  700.0000m 
 -496.00678m   30.1923n  700.0000m 
 -495.90678m   30.3272n  700.0000m 
 -495.80678m   30.4629n  700.0000m 
 -495.70678m   30.5994n  700.0000m 
 -495.60678m   30.7366n  700.0000m 
 -495.50678m   30.8746n  700.0000m 
 -495.40678m   31.0135n  700.0000m 
 -495.30678m   31.1531n  700.0000m 
 -495.20678m   31.2935n  700.0000m 
 -495.10678m   31.4348n  700.0000m 
 -495.00678m   31.5768n  700.0000m 
 -494.90678m   31.7197n  700.0000m 
 -494.80678m   31.8634n  700.0000m 
 -494.70678m   32.0079n  700.0000m 
 -494.60678m   32.1533n  700.0000m 
 -494.50678m   32.2995n  700.0000m 
 -494.40678m   32.4465n  700.0000m 
 -494.30678m   32.5944n  700.0000m 
 -494.20678m   32.7432n  700.0000m 
 -494.10678m   32.8928n  700.0000m 
 -494.00678m   33.0432n  700.0000m 
 -493.90678m   33.1945n  700.0000m 
 -493.80678m   33.3467n  700.0000m 
 -493.70678m   33.4998n  700.0000m 
 -493.60678m   33.6537n  700.0000m 
 -493.50678m   33.8086n  700.0000m 
 -493.40678m   33.9643n  700.0000m 
 -493.30678m   34.1209n  700.0000m 
 -493.20678m   34.2785n  700.0000m 
 -493.10678m   34.4369n  700.0000m 
 -493.00678m   34.5963n  700.0000m 
 -492.90678m   34.7565n  700.0000m 
 -492.80678m   34.9177n  700.0000m 
 -492.70678m   35.0798n  700.0000m 
 -492.60678m   35.2429n  700.0000m 
 -492.50678m   35.4069n  700.0000m 
 -492.40678m   35.5718n  700.0000m 
 -492.30678m   35.7377n  700.0000m 
 -492.20678m   35.9045n  700.0000m 
 -492.10678m   36.0723n  700.0000m 
 -492.00678m   36.2411n  700.0000m 
 -491.90678m   36.4109n  700.0000m 
 -491.80678m   36.5816n  700.0000m 
 -491.70678m   36.7533n  700.0000m 
 -491.60678m   36.9260n  700.0000m 
 -491.50678m   37.0997n  700.0000m 
 -491.40678m   37.2743n  700.0000m 
 -491.30678m   37.4500n  700.0000m 
 -491.20678m   37.6267n  700.0000m 
 -491.10678m   37.8045n  700.0000m 
 -491.00678m   37.9832n  700.0000m 
 -490.90678m   38.1630n  700.0000m 
 -490.80678m   38.3438n  700.0000m 
 -490.70678m   38.5256n  700.0000m 
 -490.60678m   38.7085n  700.0000m 
 -490.50678m   38.8925n  700.0000m 
 -490.40678m   39.0775n  700.0000m 
 -490.30678m   39.2636n  700.0000m 
 -490.20678m   39.4507n  700.0000m 
 -490.10678m   39.6390n  700.0000m 
 -490.00678m   39.8283n  700.0000m 
 -489.90678m   40.0187n  700.0000m 
 -489.80678m   40.2102n  700.0000m 
 -489.70678m   40.4028n  700.0000m 
 -489.60678m   40.5965n  700.0000m 
 -489.50678m   40.7913n  700.0000m 
[...]
  666.09322m  700.0000m   17.1198n 
  666.19322m  700.0000m   17.1316n 
  666.29322m  700.0000m   17.1434n 
  666.39322m  700.0000m   17.1551n 
  666.49322m  700.0000m   17.1669n 
  666.59322m  700.0000m   17.1787n 
  666.69322m  700.0000m   17.1905n 
  666.79322m  700.0000m   17.2023n 
  666.89322m  700.0000m   17.2141n 
  666.99322m  700.0000m   17.2259n 
  667.09322m  700.0000m   17.2377n 
  667.19322m  700.0000m   17.2495n 
  667.29322m  700.0000m   17.2613n 
  667.39322m  700.0000m   17.2731n 
  667.49322m  700.0000m   17.2849n 
  667.59322m  700.0000m   17.2967n 
  667.69322m  700.0000m   17.3085n 
  667.79322m  700.0000m   17.3203n 
  667.89322m  700.0000m   17.3321n 
  667.99322m  700.0000m   17.3440n 
  668.09322m  700.0000m   17.3558n 
  668.19322m  700.0000m   17.3676n 
  668.29322m  700.0000m   17.3794n 
  668.39322m  700.0000m   17.3912n 
  668.49322m  700.0000m   17.4030n 
  668.59322m  700.0000m   17.4149n 
  668.69322m  700.0000m   17.4267n 
  668.79322m  700.0000m   17.4385n 
  668.89322m  700.0000m   17.4503n 
  668.99322m  700.0000m   17.4622n 
  669.09322m  700.0000m   17.4740n 
  669.19322m  700.0000m   17.4858n 
  669.29322m  700.0000m   17.4976n 
  669.39322m  700.0000m   17.5095n 
  669.49322m  700.0000m   17.5213n 
  669.59322m  700.0000m   17.5332n 
  669.69322m  700.0000m   17.5450n 
  669.79322m  700.0000m   17.5568n 
  669.89322m  700.0000m   17.5687n 
  669.99322m  700.0000m   17.5805n 
  670.09322m  700.0000m   17.5924n 
  670.19322m  700.0000m   17.6042n 
  670.29322m  700.0000m   17.6160n 
  670.39322m  700.0000m   17.6279n 
  670.49322m  700.0000m   17.6397n 
  670.59322m  700.0000m   17.6516n 
  670.69322m  700.0000m   17.6634n 
  670.79322m  700.0000m   17.6753n 
  670.89322m  700.0000m   17.6871n 
  670.99322m  700.0000m   17.6990n 
  671.09322m  700.0000m   17.7109n 
  671.19322m  700.0000m   17.7227n 
  671.29322m  700.0000m   17.7346n 
  671.39322m  700.0000m   17.7464n 
  671.49322m  700.0000m   17.7583n 
  671.59322m  700.0000m   17.7702n 
  671.69322m  700.0000m   17.7820n 
  671.79322m  700.0000m   17.7939n 
  671.89322m  700.0000m   17.8058n 
  671.99322m  700.0000m   17.8177n 
  672.09322m  700.0000m   17.8295n 
  672.19322m  700.0000m   17.8414n 
  672.29322m  700.0000m   17.8533n 
  672.39322m  700.0000m   17.8652n 
  672.49322m  700.0000m   17.8770n 
  672.59322m  700.0000m   17.8889n 
  672.69322m  700.0000m   17.9008n 
  672.79322m  700.0000m   17.9127n 
  672.89322m  700.0000m   17.9246n 
  672.99322m  700.0000m   17.9365n 
  673.09322m  700.0000m   17.9483n 
  673.19322m  700.0000m   17.9602n 
  673.29322m  700.0000m   17.9721n 
  673.39322m  700.0000m   17.9840n 
  673.49322m  700.0000m   17.9959n 
  673.59322m  700.0000m   18.0078n 
  673.69322m  700.0000m   18.0197n 
  673.79322m  700.0000m   18.0316n 
  673.89322m  700.0000m   18.0435n 
  673.99322m  700.0000m   18.0554n 
  674.09322m  700.0000m   18.0673n 
  674.19322m  700.0000m   18.0792n 
  674.29322m  700.0000m   18.0911n 
  674.39322m  700.0000m   18.1030n 
  674.49322m  700.0000m   18.1150n 
  674.59322m  700.0000m   18.1269n 
  674.69322m  700.0000m   18.1388n 
  674.79322m  700.0000m   18.1507n 
  674.89322m  700.0000m   18.1626n 
  674.99322m  700.0000m   18.1745n 
  675.09322m  700.0000m   18.1865n 
  675.19322m  700.0000m   18.1984n 
  675.29322m  700.0000m   18.2103n 
  675.39322m  700.0000m   18.2222n 
  675.49322m  700.0000m   18.2342n 
  675.59322m  700.0000m   18.2461n 
  675.69322m  700.0000m   18.2580n 
  675.79322m  700.0000m   18.2700n 
  675.89322m  700.0000m   18.2819n 
  675.99322m  700.0000m   18.2938n 
  676.09322m  700.0000m   18.3058n 
  676.19322m  700.0000m   18.3177n 
  676.29322m  700.0000m   18.3296n 
  676.39322m  700.0000m   18.3416n 
  676.49322m  700.0000m   18.3535n 
  676.59322m  700.0000m   18.3655n 
  676.69322m  700.0000m   18.3774n 
  676.79322m  700.0000m   18.3894n 
  676.89322m  700.0000m   18.4013n 
  676.99322m  700.0000m   18.4133n 
  677.09322m  700.0000m   18.4252n 
  677.19322m  700.0000m   18.4372n 
  677.29322m  700.0000m   18.4491n 
  677.39322m  700.0000m   18.4611n 
  677.49322m  700.0000m   18.4731n 
  677.59322m  700.0000m   18.4850n 
  677.69322m  700.0000m   18.4970n 
  677.79322m  700.0000m   18.5089n 
  677.89322m  700.0000m   18.5209n 
  677.99322m  700.0000m   18.5329n 
  678.09322m  700.0000m   18.5448n 
  678.19322m  700.0000m   18.5568n 
  678.29322m  700.0000m   18.5688n 
  678.39322m  700.0000m   18.5808n 
  678.49322m  700.0000m   18.5927n 
  678.59322m  700.0000m   18.6047n 
  678.69322m  700.0000m   18.6167n 
  678.79322m  700.0000m   18.6287n 
  678.89322m  700.0000m   18.6407n 
  678.99322m  700.0000m   18.6527n 
  679.09322m  700.0000m   18.6646n 
  679.19322m  700.0000m   18.6766n 
  679.29322m  700.0000m   18.6886n 
  679.39322m  700.0000m   18.7006n 
  679.49322m  700.0000m   18.7126n 
  679.59322m  700.0000m   18.7246n 
  679.69322m  700.0000m   18.7366n 
  679.79322m  700.0000m   18.7486n 
  679.89322m  700.0000m   18.7606n 
  679.99322m  700.0000m   18.7726n 
  680.09322m  700.0000m   18.7846n 
  680.19322m  700.0000m   18.7966n 
  680.29322m  700.0000m   18.8086n 
  680.39322m  700.0000m   18.8206n 
  680.49322m  700.0000m   18.8327n 
  680.59322m  700.0000m   18.8447n 
  680.69322m  700.0000m   18.8567n 
  680.79322m  700.0000m   18.8687n 
  680.89322m  700.0000m   18.8807n 
  680.99322m  700.0000m   18.8927n 
  681.09322m  700.0000m   18.9048n 
  681.19322m  700.0000m   18.9168n 
  681.29322m  700.0000m   18.9288n 
  681.39322m  700.0000m   18.9409n 
  681.49322m  700.0000m   18.9529n 
  681.59322m  700.0000m   18.9649n 
  681.69322m  700.0000m   18.9769n 
  681.79322m  700.0000m   18.9890n 
  681.89322m  700.0000m   19.0010n 
  681.99322m  700.0000m   19.0131n 
  682.09322m  700.0000m   19.0251n 
  682.19322m  700.0000m   19.0371n 
  682.29322m  700.0000m   19.0492n 
  682.39322m  700.0000m   19.0612n 
  682.49322m  700.0000m   19.0733n 
  682.59322m  700.0000m   19.0853n 
  682.69322m  700.0000m   19.0974n 
  682.79322m  700.0000m   19.1094n 
  682.89322m  700.0000m   19.1215n 
  682.99322m  700.0000m   19.1336n 
  683.09322m  700.0000m   19.1456n 
  683.19322m  700.0000m   19.1577n 
  683.29322m  700.0000m   19.1697n 
  683.39322m  700.0000m   19.1818n 
  683.49322m  700.0000m   19.1939n 
  683.59322m  700.0000m   19.2059n 
  683.69322m  700.0000m   19.2180n 
  683.79322m  700.0000m   19.2301n 
  683.89322m  700.0000m   19.2422n 
  683.99322m  700.0000m   19.2542n 
  684.09322m  700.0000m   19.2663n 
  684.19322m  700.0000m   19.2784n 
  684.29322m  700.0000m   19.2905n 
  684.39322m  700.0000m   19.3026n 
  684.49322m  700.0000m   19.3146n 
  684.59322m  700.0000m   19.3267n 
  684.69322m  700.0000m   19.3388n 
  684.79322m  700.0000m   19.3509n 
  684.89322m  700.0000m   19.3630n 
  684.99322m  700.0000m   19.3751n 
  685.09322m  700.0000m   19.3872n 
  685.19322m  700.0000m   19.3993n 
  685.29322m  700.0000m   19.4114n 
  685.39322m  700.0000m   19.4235n 
  685.49322m  700.0000m   19.4356n 
  685.59322m  700.0000m   19.4477n 
  685.69322m  700.0000m   19.4598n 
  685.79322m  700.0000m   19.4719n 
  685.89322m  700.0000m   19.4840n 
  685.99322m  700.0000m   19.4962n 
  686.09322m  700.0000m   19.5083n 
  686.19322m  700.0000m   19.5204n 
  686.29322m  700.0000m   19.5325n 
  686.39322m  700.0000m   19.5446n 
  686.49322m  700.0000m   19.5568n 
  686.59322m  700.0000m   19.5689n 
  686.69322m  700.0000m   19.5810n 
  686.79322m  700.0000m   19.5932n 
  686.89322m  700.0000m   19.6053n 
  686.99322m  700.0000m   19.6174n 
  687.09322m  700.0000m   19.6296n 
  687.19322m  700.0000m   19.6417n 
  687.29322m  700.0000m   19.6538n 
  687.39322m  700.0000m   19.6660n 
  687.49322m  700.0000m   19.6781n 
  687.59322m  700.0000m   19.6903n 
  687.69322m  700.0000m   19.7024n 
  687.79322m  700.0000m   19.7146n 
  687.89322m  700.0000m   19.7267n 
  687.99322m  700.0000m   19.7389n 
  688.09322m  700.0000m   19.7510n 
  688.19322m  700.0000m   19.7632n 
  688.29322m  700.0000m   19.7754n 
  688.39322m  700.0000m   19.7875n 
  688.49322m  700.0000m   19.7997n 
  688.59322m  700.0000m   19.8119n 
  688.69322m  700.0000m   19.8240n 
  688.79322m  700.0000m   19.8362n 
  688.89322m  700.0000m   19.8484n 
  688.99322m  700.0000m   19.8605n 
  689.09322m  700.0000m   19.8727n 
  689.19322m  700.0000m   19.8849n 
  689.29322m  700.0000m   19.8971n 
  689.39322m  700.0000m   19.9093n 
  689.49322m  700.0000m   19.9215n 
  689.59322m  700.0000m   19.9336n 
  689.69322m  700.0000m   19.9458n 
  689.79322m  700.0000m   19.9580n 
  689.89322m  700.0000m   19.9702n 
  689.99322m  700.0000m   19.9824n 
  690.09322m  700.0000m   19.9946n 
  690.19322m  700.0000m   20.0068n 
  690.29322m  700.0000m   20.0190n 
  690.39322m  700.0000m   20.0312n 
  690.49322m  700.0000m   20.0434n 
  690.59322m  700.0000m   20.0556n 
  690.69322m  700.0000m   20.0679n 
  690.79322m  700.0000m   20.0801n 
  690.89322m  700.0000m   20.0923n 
  690.99322m  700.0000m   20.1045n 
  691.09322m  700.0000m   20.1167n 
  691.19322m  700.0000m   20.1290n 
  691.29322m  700.0000m   20.1412n 
  691.39322m  700.0000m   20.1534n 
  691.49322m  700.0000m   20.1656n 
  691.59322m  700.0000m   20.1779n 
  691.69322m  700.0000m   20.1901n 
  691.79322m  700.0000m   20.2023n 
  691.89322m  700.0000m   20.2146n 
  691.99322m  700.0000m   20.2268n 
  692.09322m  700.0000m   20.2391n 
  692.19322m  700.0000m   20.2513n 
  692.29322m  700.0000m   20.2635n 
  692.39322m  700.0000m   20.2758n 
  692.49322m  700.0000m   20.2880n 
  692.59322m  700.0000m   20.3003n 
  692.69322m  700.0000m   20.3126n 
  692.79322m  700.0000m   20.3248n 
  692.89322m  700.0000m   20.3371n 
  692.99322m  700.0000m   20.3493n 
  693.09322m  700.0000m   20.3616n 
  693.19322m  700.0000m   20.3739n 
  693.29322m  700.0000m   20.3861n 
  693.39322m  700.0000m   20.3984n 
  693.49322m  700.0000m   20.4107n 
  693.59322m  700.0000m   20.4230n 
  693.69322m  700.0000m   20.4352n 
  693.79322m  700.0000m   20.4475n 
  693.89322m  700.0000m   20.4598n 
  693.99322m  700.0000m   20.4721n 
  694.09322m  700.0000m   20.4844n 
  694.19322m  700.0000m   20.4967n 
  694.29322m  700.0000m   20.5090n 
  694.39322m  700.0000m   20.5212n 
  694.49322m  700.0000m   20.5335n 
  694.59322m  700.0000m   20.5458n 
  694.69322m  700.0000m   20.5581n 
  694.79322m  700.0000m   20.5704n 
  694.89322m  700.0000m   20.5828n 
  694.99322m  700.0000m   20.5951n 
  695.09322m  700.0000m   20.6074n 
  695.19322m  700.0000m   20.6197n 
  695.29322m  700.0000m   20.6320n 
  695.39322m  700.0000m   20.6443n 
  695.49322m  700.0000m   20.6566n 
  695.59322m  700.0000m   20.6690n 
  695.69322m  700.0000m   20.6813n 
  695.79322m  700.0000m   20.6936n 
  695.89322m  700.0000m   20.7059n 
  695.99322m  700.0000m   20.7183n 
  696.09322m  700.0000m   20.7306n 
  696.19322m  700.0000m   20.7429n 
  696.29322m  700.0000m   20.7553n 
  696.39322m  700.0000m   20.7676n 
  696.49322m  700.0000m   20.7800n 
  696.59322m  700.0000m   20.7923n 
  696.69322m  700.0000m   20.8047n 
  696.79322m  700.0000m   20.8170n 
  696.89322m  700.0000m   20.8294n 
  696.99322m  700.0000m   20.8417n 
  697.09322m  700.0000m   20.8541n 
  697.19322m  700.0000m   20.8664n 
  697.29322m  700.0000m   20.8788n 
  697.39322m  700.0000m   20.8912n 
  697.49322m  700.0000m   20.9035n 
  697.59322m  700.0000m   20.9159n 
  697.69322m  700.0000m   20.9283n 
  697.79322m  700.0000m   20.9407n 
  697.89322m  700.0000m   20.9530n 
  697.99322m  700.0000m   20.9654n 
  698.09322m  700.0000m   20.9778n 
  698.19322m  700.0000m   20.9902n 
  698.29322m  700.0000m   21.0026n 
  698.39322m  700.0000m   21.0150n 
  698.49322m  700.0000m   21.0274n 
  698.59322m  700.0000m   21.0397n 
  698.69322m  700.0000m   21.0521n 
  698.79322m  700.0000m   21.0645n 
  698.89322m  700.0000m   21.0770n 
  698.99322m  700.0000m   21.0894n 
  699.09322m  700.0000m   21.1018n 
  699.19322m  700.0000m   21.1142n 
  699.29322m  700.0000m   21.1266n 
  699.39322m  700.0000m   21.1390n 
  699.49322m  700.0000m   21.1514n 
  699.59322m  700.0000m   21.1638n 
  699.69322m  700.0000m   21.1763n 
  699.79322m  700.0000m   21.1887n 
  699.89322m  700.0000m   21.2011n 
  699.99322m  700.0000m   21.2135n 
  700.09322m  700.0000m   21.2260n 
  700.19322m  700.0000m   21.2384n 
  700.29322m  700.0000m   21.2509n 
  700.39322m  700.0000m   21.2633n 
  700.49322m  700.0000m   21.2757n 
  700.59322m  700.0000m   21.2882n 
  700.69322m  700.0000m   21.3006n 
  700.79322m  700.0000m   21.3131n 
  700.89322m  700.0000m   21.3255n 
  700.99322m  700.0000m   21.3380n 
  701.09322m  700.0000m   21.3505n 
  701.19322m  700.0000m   21.3629n 
  701.29322m  700.0000m   21.3754n 
  701.39322m  700.0000m   21.3878n 
  701.49322m  700.0000m   21.4003n 
  701.59322m  700.0000m   21.4128n 
  701.69322m  700.0000m   21.4253n 
  701.79322m  700.0000m   21.4377n 
  701.89322m  700.0000m   21.4502n 
  701.99322m  700.0000m   21.4627n 
  702.09322m  700.0000m   21.4752n 
  702.19322m  700.0000m   21.4877n 
  702.29322m  700.0000m   21.5002n 
  702.39322m  700.0000m   21.5127n 
  702.49322m  700.0000m   21.5252n 
  702.59322m  700.0000m   21.5377n 
  702.69322m  700.0000m   21.5502n 
  702.79322m  700.0000m   21.5627n 
  702.89322m  700.0000m   21.5752n 
  702.99322m  700.0000m   21.5877n 
  703.09322m  700.0000m   21.6002n 
  703.19322m  700.0000m   21.6127n 
  703.29322m  700.0000m   21.6252n 
  703.39322m  700.0000m   21.6378n 
  703.49322m  700.0000m   21.6503n 
  703.59322m  700.0000m   21.6628n 
  703.69322m  700.0000m   21.6753n 
  703.79322m  700.0000m   21.6879n 
  703.89322m  700.0000m   21.7004n 
  703.99322m  700.0000m   21.7129n 
  704.09322m  700.0000m   21.7255n 
  704.19322m  700.0000m   21.7380n 
  704.29322m  700.0000m   21.7506n 
  704.39322m  700.0000m   21.7631n 
  704.49322m  700.0000m   21.7757n 
  704.59322m  700.0000m   21.7882n 
  704.69322m  700.0000m   21.8008n 
  704.79322m  700.0000m   21.8133n 
  704.89322m  700.0000m   21.8259n 
  704.99322m  700.0000m   21.8385n 
  705.09322m  700.0000m   21.8510n 
  705.19322m  700.0000m   21.8636n 
  705.29322m  700.0000m   21.8762n 
  705.39322m  700.0000m   21.8887n 
  705.49322m  700.0000m   21.9013n 
  705.59322m  700.0000m   21.9139n 
  705.69322m  700.0000m   21.9265n 
  705.79322m  700.0000m   21.9391n 
  705.89322m  700.0000m   21.9517n 
  705.99322m  700.0000m   21.9643n 
  706.09322m  700.0000m   21.9769n 
  706.19322m  700.0000m   21.9895n 
  706.29322m  700.0000m   22.0021n 
  706.39322m  700.0000m   22.0147n 
  706.49322m  700.0000m   22.0273n 
  706.59322m  700.0000m   22.0399n 
  706.69322m  700.0000m   22.0525n 
  706.79322m  700.0000m   22.0651n 
  706.89322m  700.0000m   22.0777n 
  706.99322m  700.0000m   22.0904n 
  707.09322m  700.0000m   22.1030n 
y
 cross_point=-494.9747m
 max_1= 431.6740m    at=-253.1068m
             from=-494.9747m    to= 494.9747m
 max_2= 431.6740m    at= 253.0932m
             from=-494.9747m    to= 494.9747m
 snm= 305.2396m
1****** HSPICE -- Q-2020.03-SP2-2 linux64 (Nov  1 2020) ******                  
 ******  
 .title noise margin in hold operation

 ****** operating point information tnom=  25.000 temp=  25.000 ******
 ****** operating point status is all       simulation time is     0.     
    node    =voltage      node    =voltage      node    =voltage

 +0:bl      = 700.0000m 0:blb     = 700.0000m 0:gl      = 369.3009m
 +0:gr      = 369.3009m 0:q       = 369.3009m 0:qb      = 369.3009m
 +0:u       =   0.      0:v1      = 522.2703m 0:v2      = 522.2703m
 +0:vdd     = 700.0000m 0:wl      =   0.      0:x       = 658.1762m


 **** voltage sources

 subckt                                   
 element  0:vu       0:vvdd     0:vwl     
  volts      0.       700.0000m    0.     
  current    0.      -998.3374n  305.0209f
  power      0.       698.8361n    0.     

     total voltage source power dissipation=  698.8361n       watts



 **** voltage-controlled voltage sources


 subckt                                              
 element  0:eli      0:ev1      0:eri      0:ev2     
  volts    369.3009m  522.2703m  369.3009m  522.2703m
  current   16.1798f    0.        16.1798f    0.     





 **** mosfets


 subckt                                                                    
 element  0:mpr      0:mnr      0:mpl      0:mnl      0:mnpr     0:mnpl    
 model    0:pmos_sra 0:nmos_sra 0:pmos_sra 0:nmos_sra 0:nmos_sra 0:nmos_sra
 region   Subth      Subth      Subth      Subth      Cutoff     Cutoff    
  id      -499.1686n  499.1686n -499.1686n  499.1686n  938.2452a  938.2452a
  ibs        0.         0.         0.         0.         0.         0.     
  ibd        0.         0.         0.         0.         0.         0.     
  vgs     -330.6991m  369.3009m -330.6991m  369.3009m -369.3009m -369.3009m
  vds     -330.6991m  369.3009m -330.6991m  369.3009m  330.6991m  330.6991m
  vbs      -41.8238m  658.1762m  -41.8238m  658.1762m  288.8753m  288.8753m
  vth     -334.7549m  408.4973m -334.7549m  408.4973m  408.7099m  408.7099m
  vdsat    -95.5226m   79.1197m  -95.5226m   79.1197m   70.6690m   70.6690m
  vod        4.0558m  -39.1964m    4.0558m  -39.1964m -778.0108m -778.0108m
  beta       1.6413m    2.1736m    1.6413m    2.1736m    2.1736m    2.1736m
  gam eff    0.         0.         0.         0.         0.         0.     
  gm        12.9907u   15.3998u   12.9907u   15.3998u  8.590e-21  8.590e-21
  gds      301.4608n  239.6269n  301.4608n  239.6269n  228.2566a  228.2566a
  gmb        4.8922p   12.0124p    4.8922p   12.0124p  1.316e-20  1.316e-20
  cdtot     10.1750a   10.2205a   10.1750a   10.2205a   10.2225a   10.2225a
  cgtot     31.2784a   26.1428a   31.2784a   26.1428a   20.4450a   20.4450a
  cstot     17.2863a   14.0661a   17.2863a   14.0661a   10.2225a   10.2225a
  cbtot      0.         0.         0.         0.         0.         0.     
  cgs       21.2138a   15.9421a   21.2138a   15.9421a   10.2225a   10.2225a
  cgd       10.0646a   10.2007a   10.0646a   10.2007a   10.2225a   10.2225a




          ***** job concluded
 ******  
 .title noise margin in hold operation

 ****** job statistics summary tnom=  25.000 temp=  25.000 ******
  
 ******  Machine Information  ******
 CPU:
 model name	: AMD EPYC 7713 64-Core Processor
 cpu MHz	: 2000.000
  
 OS:
 Linux version 3.10.0-1160.88.1.el7.x86_64 (mockbuild@kbuilder.bsys.centos.org) (gcc version 4.8.5 20150623 (Red Hat 4.8.5-44) (GCC) ) #1 SMP Tue Mar 7 15:41:52 UTC 2023


  ******  HSPICE Threads Information  ******

  Command Line Threads Count :     1
  Available CPU Count        :   256
  Actual Threads Count       :     1


  ******  Circuit Statistics  ******
  # nodes       =      13 # elements   =      15
  # resistors   =       0 # capacitors =       2 # inductors   =       0
  # mutual_inds =       0 # vccs       =       0 # vcvs        =       4
  # cccs        =       0 # ccvs       =       0 # volt_srcs   =       3
  # curr_srcs   =       0 # diodes     =       0 # bjts        =       0
  # jfets       =       0 # mosfets    =       6 # U elements  =       0
  # T elements  =       0 # W elements =       0 # B elements  =       0
  # S elements  =       0 # P elements =       0 # va device   =       0
  # vector_srcs =       0 # N elements =       0


  ******  Runtime Statistics (seconds)  ******

  analysis           time    # points   tot. iter  conv.iter
  op point           0.01           1          10
  dc sweep           1.06       14143       42435
  readin             0.01
  errchk             0.01
  setup              0.00
  output             0.00


           peak memory used        406.03 megabytes
           total cpu time            1.14 seconds
           total elapsed time        1.42 seconds
           job started at     20:54:03 03/14/2025
           job ended   at     20:54:04 03/14/2025
           job total runtime         1.42 seconds


 lic: Release hspice token(s) 
 lic: total license checkout elapse time:        0.26(s)
