 ****** HSPICE -- Q-2020.03-SP2-2 linux64 (Nov  1 2020) ******                  
  Copyright (c) 1986 - 2025 by Synopsys, Inc. All Rights Reserved.              
  This software and the associated documentation are proprietary
  to Synopsys, Inc. This software may only be used in accordance
  with the terms and conditions of a written license agreement with
  Synopsys, Inc. All other use, reproduction, or distribution of
  this software is strictly prohibited.
  Input File: ex1_1.sp                                                          
  Command line options: /RAID2/cad/synopsys/hspice/2020.03-sp2-2/hspice/linux64/hspice -i ex1_1.sp -o ex1_1.lis
  Start time: Tue Mar 18 21:00:06 2025
 lic:  
 lic: FLEXlm: SDK_12.6 
 lic: USER:   es25MCS042           HOSTNAME: ee28 
 lic: HOSTID: "d85ed3efc19a"       PID:      210393 
 lic: Using FLEXlm license file: 
 lic: 26585@lshc 
 lic: Checkout 1 hspice 
 lic: License/Maintenance for hspice will expire on 14-may-2025/2024.09 
 lic: 304(in_use)/1100(total) FLOATING license(s) on SERVER 26585@lshc 
 lic:   
  
      
             
 Warning:'Floating bulk' occurs 1 times
 Summary of floating bulk:
 -----------------------
 |Node      |Device    |
 |----------+----------|
 |x         |mn_ax1    |
 -----------------------
              
 *****************************************************************
 ******  option summary
 ******
 runlvl  = 3         bypass  = 2.0000    
 convergence problems in dc sweep curves at  0.21589    
  resimulating with dc convergence controls

 ******
 .title ex1_1

 ****** dc transfer curves tnom=  25.000 temp=  25.000 ******
x

 volt         voltage    voltage   
             q          qb         
 -707.10678m  699.9999m  765.5665n 
 -707.00678m  699.9999m  764.9858n 
 -706.90678m  699.9999m  764.4057n 
 -706.80678m  699.9999m  763.8262n 
 -706.70678m  699.9999m  763.2472n 
 -706.60678m  699.9999m  762.6688n 
 -706.50678m  699.9999m  762.0909n 
 -706.40678m  699.9999m  761.5136n 
 -706.30678m  699.9999m  760.9368n 
 -706.20678m  699.9999m  760.3606n 
 -706.10678m  699.9999m  759.7849n 
 -706.00678m  699.9999m  759.2097n 
 -705.90678m  699.9999m  758.6351n 
 -705.80678m  699.9999m  758.0611n 
 -705.70678m  699.9999m  757.4876n 
 -705.60678m  699.9999m  756.9147n 
 -705.50678m  699.9999m  756.3423n 
 -705.40678m  699.9999m  755.7704n 
 -705.30678m  699.9999m  755.1991n 
 -705.20678m  699.9999m  754.6283n 
 -705.10678m  699.9999m  754.0581n 
 -705.00678m  699.9999m  753.4884n 
 -704.90678m  699.9999m  752.9193n 
 -704.80678m  699.9999m  752.3507n 
 -704.70678m  699.9999m  751.7826n 
 -704.60678m  699.9999m  751.2151n 
 -704.50678m  699.9999m  750.6481n 
 -704.40678m  699.9999m  750.0817n 
 -704.30678m  699.9999m  749.5158n 
 -704.20678m  699.9999m  748.9504n 
 -704.10678m  699.9999m  748.3856n 
 -704.00678m  699.9999m  747.8213n 
 -703.90678m  699.9999m  747.2576n 
 -703.80678m  699.9999m  746.6944n 
 -703.70678m  699.9999m  746.1317n 
 -703.60678m  699.9999m  745.5695n 
 -703.50678m  699.9999m  745.0079n 
 -703.40678m  699.9999m  744.4469n 
 -703.30678m  699.9999m  743.8863n 
 -703.20678m  699.9999m  743.3263n 
 -703.10678m  699.9999m  742.7668n 
 -703.00678m  699.9999m  742.2079n 
 -702.90678m  699.9999m  741.6495n 
 -702.80678m  699.9999m  741.0916n 
 -702.70678m  699.9999m  740.5342n 
 -702.60678m  699.9999m  739.9774n 
 -702.50678m  699.9999m  739.4211n 
 -702.40678m  699.9999m  738.8653n 
 -702.30678m  699.9999m  738.3101n 
 -702.20678m  699.9999m  737.7554n 
 -702.10678m  699.9999m  737.2012n 
 -702.00678m  699.9999m  736.6475n 
 -701.90678m  699.9999m  736.0944n 
 -701.80678m  699.9999m  735.5417n 
 -701.70678m  699.9999m  734.9897n 
 -701.60678m  699.9999m  734.4381n 
 -701.50678m  699.9999m  733.8870n 
 -701.40678m  699.9999m  733.3365n 
 -701.30678m  699.9999m  732.7865n 
 -701.20678m  699.9999m  732.2370n 
 -701.10678m  699.9999m  731.6881n 
 -701.00678m  699.9999m  731.1396n 
 -700.90678m  699.9999m  730.5917n 
 -700.80678m  699.9999m  730.0443n 
 -700.70678m  699.9999m  729.4974n 
 -700.60678m  699.9999m  728.9511n 
 -700.50678m  699.9999m  728.4052n 
 -700.40678m  699.9999m  727.8599n 
 -700.30678m  699.9999m  727.3151n 
 -700.20678m  699.9999m  726.7708n 
 -700.10678m  699.9999m  726.2270n 
 -700.00678m  699.9999m  725.6838n 
 -699.90678m  699.9999m  725.1410n 
 -699.80678m  699.9999m  724.5988n 
 -699.70678m  699.9999m  724.0570n 
 -699.60678m  699.9999m  723.5158n 
 -699.50678m  699.9999m  722.9751n 
 -699.40678m  699.9999m  722.4349n 
 -699.30678m  699.9999m  721.8953n 
 -699.20678m  699.9999m  721.3561n 
 -699.10678m  699.9999m  720.8174n 
 -699.00678m  699.9999m  720.2793n 
 -698.90678m  699.9999m  719.7416n 
 -698.80678m  699.9999m  719.2045n 
 -698.70678m  699.9999m  718.6679n 
 -698.60678m  699.9999m  718.1318n 
 -698.50678m  699.9999m  717.5962n 
 -698.40678m  699.9999m  717.0611n 
 -698.30678m  699.9999m  716.5265n 
 -698.20678m  699.9999m  715.9924n 
 -698.10678m  699.9999m  715.4588n 
 -698.00678m  699.9999m  714.9257n 
 -697.90678m  699.9999m  714.3931n 
 -697.80678m  699.9999m  713.8610n 
 -697.70678m  699.9999m  713.3294n 
 -697.60678m  699.9999m  712.7984n 
 -697.50678m  699.9999m  712.2678n 
 -697.40678m  699.9999m  711.7377n 
 -697.30678m  699.9999m  711.2081n 
 -697.20678m  699.9999m  710.6791n 
 -697.10678m  699.9999m  710.1505n 
 -697.00678m  699.9999m  709.6224n 
 -696.90678m  699.9999m  709.0948n 
 -696.80678m  699.9999m  708.5678n 
 -696.70678m  699.9999m  708.0412n 
 -696.60678m  699.9999m  707.5151n 
 -696.50678m  699.9999m  706.9895n 
 -696.40678m  699.9999m  706.4644n 
 -696.30678m  699.9999m  705.9398n 
 -696.20678m  699.9999m  705.4157n 
 -696.10678m  699.9999m  704.8921n 
 -696.00678m  699.9999m  704.3690n 
 -695.90678m  699.9999m  703.8463n 
 -695.80678m  699.9999m  703.3242n 
 -695.70678m  699.9999m  702.8026n 
 -695.60678m  699.9999m  702.2814n 
 -695.50678m  699.9999m  701.7608n 
 -695.40678m  699.9999m  701.2406n 
 -695.30678m  699.9999m  700.7209n 
 -695.20678m  699.9999m  700.2017n 
 -695.10678m  699.9999m  699.6830n 
 -695.00678m  699.9999m  699.1648n 
 -694.90678m  699.9999m  698.6471n 
 -694.80678m  699.9999m  698.1298n 
 -694.70678m  699.9999m  697.6131n 
 -694.60678m  699.9999m  697.0968n 
 -694.50678m  699.9999m  696.5810n 
 -694.40678m  699.9999m  696.0658n 
 -694.30678m  699.9999m  695.5509n 
 -694.20678m  699.9999m  695.0366n 
 -694.10678m  699.9999m  694.5228n 
 -694.00678m  699.9999m  694.0094n 
 -693.90678m  699.9999m  693.4965n 
 -693.80678m  699.9999m  692.9841n 
 -693.70678m  699.9999m  692.4722n 
 -693.60678m  699.9999m  691.9608n 
 -693.50678m  699.9999m  691.4498n 
 -693.40678m  699.9999m  690.9394n 
 -693.30678m  699.9999m  690.4294n 
 -693.20678m  699.9999m  689.9199n 
 -693.10678m  699.9999m  689.4108n 
 -693.00678m  699.9999m  688.9023n 
 -692.90678m  699.9999m  688.3942n 
 -692.80678m  699.9999m  687.8866n 
 -692.70678m  699.9999m  687.3795n 
 -692.60678m  699.9999m  686.8728n 
 -692.50678m  699.9999m  686.3666n 
 -692.40678m  699.9999m  685.8609n 
 -692.30678m  699.9999m  685.3557n 
 -692.20678m  699.9999m  684.8510n 
 -692.10678m  699.9999m  684.3467n 
 -692.00678m  699.9999m  683.8429n 
 -691.90678m  699.9999m  683.3395n 
 -691.80678m  699.9999m  682.8367n 
 -691.70678m  699.9999m  682.3343n 
 -691.60678m  699.9999m  681.8324n 
 -691.50678m  699.9999m  681.3309n 
 -691.40678m  699.9999m  680.8300n 
 -691.30678m  699.9999m  680.3294n 
 -691.20678m  699.9999m  679.8294n 
 -691.10678m  699.9999m  679.3298n 
 -691.00678m  699.9999m  678.8307n 
 -690.90678m  699.9999m  678.3321n 
 -690.80678m  699.9999m  677.8339n 
 -690.70678m  699.9999m  677.3362n 
 -690.60678m  699.9999m  676.8390n 
 -690.50678m  699.9999m  676.3422n 
 -690.40678m  699.9999m  675.8459n 
 -690.30678m  699.9999m  675.3501n 
 -690.20678m  699.9999m  674.8547n 
 -690.10678m  699.9999m  674.3598n 
 -690.00678m  699.9999m  673.8653n 
 -689.90678m  699.9999m  673.3713n 
 -689.80678m  699.9999m  672.8778n 
 -689.70678m  699.9999m  672.3848n 
 -689.60678m  699.9999m  671.8922n 
 -689.50678m  699.9999m  671.4000n 
 -689.40678m  699.9999m  670.9083n 
 -689.30678m  699.9999m  670.4171n 
 -689.20678m  699.9999m  669.9264n 
 -689.10678m  699.9999m  669.4360n 
 -689.00678m  699.9999m  668.9462n 
 -688.90678m  699.9999m  668.4568n 
 -688.80678m  699.9999m  667.9679n 
 -688.70678m  699.9999m  667.4794n 
 -688.60678m  699.9999m  666.9914n 
 -688.50678m  699.9999m  666.5038n 
 -688.40678m  699.9999m  666.0167n 
 -688.30678m  699.9999m  665.5301n 
 -688.20678m  699.9999m  665.0439n 
 -688.10678m  699.9999m  664.5581n 
 -688.00678m  699.9999m  664.0728n 
 -687.90678m  699.9999m  663.5880n 
 -687.80678m  699.9999m  663.1036n 
 -687.70678m  699.9999m  662.6197n 
 -687.60678m  699.9999m  662.1362n 
 -687.50678m  699.9999m  661.6532n 
 -687.40678m  699.9999m  661.1706n 
 -687.30678m  699.9999m  660.6885n 
 -687.20678m  699.9999m  660.2068n 
 -687.10678m  699.9999m  659.7256n 
 -687.00678m  699.9999m  659.2448n 
 -686.90678m  699.9999m  658.7644n 
 -686.80678m  699.9999m  658.2846n 
 -686.70678m  699.9999m  657.8051n 
 -686.60678m  699.9999m  657.3261n 
 -686.50678m  699.9999m  656.8476n 
 -686.40678m  699.9999m  656.3695n 
 -686.30678m  699.9999m  655.8918n 
 -686.20678m  699.9999m  655.4146n 
 -686.10678m  699.9999m  654.9379n 
 -686.00678m  699.9999m  654.4615n 
 -685.90678m  699.9999m  653.9857n 
 -685.80678m  699.9999m  653.5102n 
 -685.70678m  699.9999m  653.0352n 
 -685.60678m  699.9999m  652.5607n 
 -685.50678m  699.9999m  652.0866n 
 -685.40678m  699.9999m  651.6129n 
 -685.30678m  699.9999m  651.1397n 
 -685.20678m  699.9999m  650.6669n 
 -685.10678m  699.9999m  650.1946n 
 -685.00678m  699.9999m  649.7226n 
 -684.90678m  699.9999m  649.2512n 
 -684.80678m  699.9999m  648.7801n 
 -684.70678m  699.9999m  648.3096n 
 -684.60678m  699.9999m  647.8394n 
 -684.50678m  699.9999m  647.3697n 
 -684.40678m  699.9999m  646.9004n 
 -684.30678m  699.9999m  646.4316n 
 -684.20678m  699.9999m  645.9632n 
 -684.10678m  699.9999m  645.4952n 
 -684.00678m  699.9999m  645.0276n 
 -683.90678m  699.9999m  644.5605n 
 -683.80678m  699.9999m  644.0939n 
 -683.70678m  699.9999m  643.6276n 
 -683.60678m  699.9999m  643.1618n 
 -683.50678m  699.9999m  642.6965n 
 -683.40678m  699.9999m  642.2315n 
 -683.30678m  699.9999m  641.7670n 
 -683.20678m  699.9999m  641.3029n 
 -683.10678m  699.9999m  640.8393n 
 -683.00678m  699.9999m  640.3761n 
 -682.90678m  699.9999m  639.9133n 
 -682.80678m  699.9999m  639.4509n 
 -682.70678m  699.9999m  638.9890n 
 -682.60678m  699.9999m  638.5275n 
 -682.50678m  699.9999m  638.0664n 
 -682.40678m  699.9999m  637.6058n 
 -682.30678m  699.9999m  637.1456n 
 -682.20678m  699.9999m  636.6858n 
 -682.10678m  699.9999m  636.2264n 
 -682.00678m  699.9999m  635.7675n 
 -681.90678m  699.9999m  635.3090n 
 -681.80678m  699.9999m  634.8509n 
 -681.70678m  699.9999m  634.3932n 
 -681.60678m  699.9999m  633.9360n 
 -681.50678m  699.9999m  633.4791n 
 -681.40678m  699.9999m  633.0227n 
 -681.30678m  699.9999m  632.5668n 
 -681.20678m  699.9999m  632.1112n 
 -681.10678m  699.9999m  631.6561n 
 -681.00678m  699.9999m  631.2014n 
 -680.90678m  699.9999m  630.7471n 
 -680.80678m  699.9999m  630.2932n 
 -680.70678m  699.9999m  629.8398n 
 -680.60678m  699.9999m  629.3868n 
 -680.50678m  699.9999m  628.9342n 
 -680.40678m  699.9999m  628.4820n 
 -680.30678m  699.9999m  628.0302n 
 -680.20678m  699.9999m  627.5789n 
 -680.10678m  699.9999m  627.1279n 
 -680.00678m  699.9999m  626.6774n 
 -679.90678m  699.9999m  626.2273n 
 -679.80678m  699.9999m  625.7776n 
 -679.70678m  699.9999m  625.3283n 
 -679.60678m  699.9999m  624.8795n 
 -679.50678m  699.9999m  624.4310n 
 -679.40678m  699.9999m  623.9830n 
 -679.30678m  699.9999m  623.5354n 
 -679.20678m  699.9999m  623.0882n 
 -679.10678m  699.9999m  622.6414n 
 -679.00678m  699.9999m  622.1951n 
 -678.90678m  699.9999m  621.7491n 
 -678.80678m  699.9999m  621.3035n 
 -678.70678m  699.9999m  620.8584n 
 -678.60678m  699.9999m  620.4137n 
 -678.50678m  699.9999m  619.9694n 
 -678.40678m  699.9999m  619.5255n 
 -678.30678m  699.9999m  619.0820n 
 -678.20678m  699.9999m  618.6389n 
 -678.10678m  699.9999m  618.1962n 
 -678.00678m  699.9999m  617.7539n 
 -677.90678m  699.9999m  617.3120n 
 -677.80678m  699.9999m  616.8706n 
 -677.70678m  699.9999m  616.4295n 
 -677.60678m  699.9999m  615.9889n 
 -677.50678m  699.9999m  615.5487n 
 -677.40678m  699.9999m  615.1088n 
 -677.30678m  699.9999m  614.6694n 
 -677.20678m  699.9999m  614.2304n 
 -677.10678m  699.9999m  613.7918n 
 -677.00678m  699.9999m  613.3535n 
 -676.90678m  699.9999m  612.9157n 
 -676.80678m  699.9999m  612.4783n 
 -676.70678m  699.9999m  612.0413n 
 -676.60678m  699.9999m  611.6047n 
 -676.50678m  699.9999m  611.1685n 
 -676.40678m  699.9999m  610.7327n 
 -676.30678m  699.9999m  610.2973n 
 -676.20678m  699.9999m  609.8623n 
 -676.10678m  699.9999m  609.4277n 
 -676.00678m  699.9999m  608.9935n 
 -675.90678m  699.9999m  608.5597n 
 -675.80678m  699.9999m  608.1263n 
 -675.70678m  699.9999m  607.6933n 
 -675.60678m  699.9999m  607.2607n 
 -675.50678m  699.9999m  606.8285n 
 -675.40678m  699.9999m  606.3967n 
 -675.30678m  699.9999m  605.9653n 
 -675.20678m  699.9999m  605.5343n 
 -675.10678m  699.9999m  605.1037n 
 -675.00678m  699.9999m  604.6735n 
 -674.90678m  699.9999m  604.2436n 
 -674.80678m  699.9999m  603.8142n 
 -674.70678m  699.9999m  603.3852n 
 -674.60678m  699.9999m  602.9565n 
 -674.50678m  699.9999m  602.5283n 
 -674.40678m  699.9999m  602.1004n 
 -674.30678m  699.9999m  601.6729n 
 -674.20678m  699.9999m  601.2459n 
 -674.10678m  699.9999m  600.8192n 
 -674.00678m  699.9999m  600.3929n 
 -673.90678m  699.9999m  599.9670n 
 -673.80678m  699.9999m  599.5415n 
 -673.70678m  699.9999m  599.1164n 
 -673.60678m  699.9999m  598.6916n 
 -673.50678m  699.9999m  598.2673n 
 -673.40678m  699.9999m  597.8434n 
 -673.30678m  699.9999m  597.4198n 
 -673.20678m  699.9999m  596.9966n 
 -673.10678m  699.9999m  596.5738n 
 -673.00678m  699.9999m  596.1514n 
 -672.90678m  699.9999m  595.7294n 
 -672.80678m  699.9999m  595.3078n 
 -672.70678m  699.9999m  594.8866n 
 -672.60678m  699.9999m  594.4657n 
 -672.50678m  699.9999m  594.0452n 
 -672.40678m  699.9999m  593.6252n 
 -672.30678m  699.9999m  593.2055n 
 -672.20678m  699.9999m  592.7862n 
 -672.10678m  699.9999m  592.3672n 
 -672.00678m  699.9999m  591.9487n 
 -671.90678m  699.9999m  591.5305n 
 -671.80678m  699.9999m  591.1127n 
 -671.70678m  699.9999m  590.6953n 
 -671.60678m  699.9999m  590.2783n 
 -671.50678m  699.9999m  589.8617n 
 -671.40678m  699.9999m  589.4454n 
 -671.30678m  699.9999m  589.0296n 
 -671.20678m  699.9999m  588.6141n 
 -671.10678m  699.9999m  588.1990n 
 -671.00678m  699.9999m  587.7842n 
 -670.90678m  699.9999m  587.3699n 
 -670.80678m  699.9999m  586.9559n 
 -670.70678m  699.9999m  586.5423n 
 -670.60678m  699.9999m  586.1291n 
 -670.50678m  699.9999m  585.7162n 
 -670.40678m  699.9999m  585.3038n 
 -670.30678m  699.9999m  584.8917n 
 -670.20678m  699.9999m  584.4800n 
 -670.10678m  699.9999m  584.0686n 
 -670.00678m  699.9999m  583.6577n 
 -669.90678m  699.9999m  583.2471n 
 -669.80678m  699.9999m  582.8369n 
 -669.70678m  699.9999m  582.4270n 
 -669.60678m  699.9999m  582.0176n 
 -669.50678m  699.9999m  581.6085n 
 -669.40678m  699.9999m  581.1997n 
 -669.30678m  699.9999m  580.7914n 
 -669.20678m  699.9999m  580.3834n 
 -669.10678m  699.9999m  579.9758n 
 -669.00678m  699.9999m  579.5686n 
 -668.90678m  699.9999m  579.1617n 
 -668.80678m  699.9999m  578.7552n 
 -668.70678m  699.9999m  578.3491n 
 -668.60678m  699.9999m  577.9434n 
 -668.50678m  699.9999m  577.5380n 
 -668.40678m  699.9999m  577.1330n 
 -668.30678m  699.9999m  576.7284n 
 -668.20678m  699.9999m  576.3241n 
 -668.10678m  699.9999m  575.9202n 
 -668.00678m  699.9999m  575.5166n 
 -667.90678m  699.9999m  575.1135n 
 -667.80678m  699.9999m  574.7107n 
 -667.70678m  699.9999m  574.3082n 
 -667.60678m  699.9999m  573.9062n 
 -667.50678m  699.9999m  573.5045n 
 -667.40678m  699.9999m  573.1031n 
 -667.30678m  699.9999m  572.7022n 
 -667.20678m  699.9999m  572.3016n 
 -667.10678m  699.9999m  571.9013n 
 -667.00678m  699.9999m  571.5014n 
 -666.90678m  699.9999m  571.1019n 
 -666.80678m  699.9999m  570.7028n 
 -666.70678m  699.9999m  570.3040n 
 -666.60678m  699.9999m  569.9055n 
 -666.50678m  699.9999m  569.5075n 
 -666.40678m  699.9999m  569.1098n 
 -666.30678m  699.9999m  568.7124n 
 -666.20678m  699.9999m  568.3154n 
 -666.10678m  699.9999m  567.9188n 
 -666.00678m  699.9999m  567.5226n 
 -665.90678m  699.9999m  567.1267n 
 -665.80678m  699.9999m  566.7311n 
 -665.70678m  699.9999m  566.3359n 
 -665.60678m  699.9999m  565.9411n 
 -665.50678m  699.9999m  565.5466n 
 -665.40678m  699.9999m  565.1525n 
 -665.30678m  699.9999m  564.7588n 
 -665.20678m  699.9999m  564.3654n 
 -665.10678m  699.9999m  563.9724n 
 -665.00678m  699.9999m  563.5797n 
 -664.90678m  699.9999m  563.1873n 
 -664.80678m  699.9999m  562.7954n 
 -664.70678m  699.9999m  562.4038n 
 -664.60678m  699.9999m  562.0125n 
 -664.50678m  699.9999m  561.6216n 
 -664.40678m  699.9999m  561.2310n 
 -664.30678m  699.9999m  560.8408n 
 -664.20678m  699.9999m  560.4510n 
 -664.10678m  699.9999m  560.0615n 
 -664.00678m  699.9999m  559.6724n 
 -663.90678m  699.9999m  559.2836n 
 -663.80678m  699.9999m  558.8952n 
 -663.70678m  699.9999m  558.5071n 
 -663.60678m  699.9999m  558.1193n 
 -663.50678m  699.9999m  557.7320n 
 -663.40678m  699.9999m  557.3449n 
 -663.30678m  699.9999m  556.9582n 
 -663.20678m  699.9999m  556.5719n 
 -663.10678m  699.9999m  556.1859n 
 -663.00678m  699.9999m  555.8003n 
 -662.90678m  699.9999m  555.4150n 
 -662.80678m  699.9999m  555.0301n 
 -662.70678m  699.9999m  554.6455n 
 -662.60678m  699.9999m  554.2613n 
 -662.50678m  699.9999m  553.8774n 
 -662.40678m  699.9999m  553.4938n 
 -662.30678m  699.9999m  553.1106n 
 -662.20678m  699.9999m  552.7278n 
 -662.10678m  699.9999m  552.3453n 
 -662.00678m  699.9999m  551.9631n 
 -661.90678m  699.9999m  551.5813n 
 -661.80678m  699.9999m  551.1998n 
 -661.70678m  699.9999m  550.8187n 
 -661.60678m  699.9999m  550.4379n 
 -661.50678m  699.9999m  550.0575n 
 -661.40678m  699.9999m  549.6774n 
 -661.30678m  699.9999m  549.2976n 
 -661.20678m  699.9999m  548.9182n 
 -661.10678m  699.9999m  548.5391n 
 -661.00678m  699.9999m  548.1604n 
 -660.90678m  699.9999m  547.7820n 
 -660.80678m  699.9999m  547.4040n 
 -660.70678m  699.9999m  547.0263n 
 -660.60678m  699.9999m  546.6489n 
 -660.50678m  699.9999m  546.2719n 
 -660.40678m  699.9999m  545.8952n 
 -660.30678m  699.9999m  545.5189n 
 -660.20678m  699.9999m  545.1428n 
 -660.10678m  699.9999m  544.7672n 
 -660.00678m  699.9999m  544.3919n 
 -659.90678m  699.9999m  544.0169n 
 -659.80678m  699.9999m  543.6422n 
 -659.70678m  699.9999m  543.2679n 
 -659.60678m  699.9999m  542.8939n 
 -659.50678m  699.9999m  542.5203n 
 -659.40678m  699.9999m  542.1470n 
 -659.30678m  699.9999m  541.7740n 
 -659.20678m  699.9999m  541.4014n 
 -659.10678m  699.9999m  541.0291n 
 -659.00678m  699.9999m  540.6571n 
 -658.90678m  699.9999m  540.2855n 
 -658.80678m  699.9999m  539.9142n 
 -658.70678m  699.9999m  539.5432n 
 -658.60678m  699.9999m  539.1726n 
 -658.50678m  699.9999m  538.8023n 
 -658.40678m  699.9999m  538.4323n 
 -658.30678m  699.9999m  538.0627n 
 -658.20678m  699.9999m  537.6934n 
 -658.10678m  699.9999m  537.3244n 
 -658.00678m  699.9999m  536.9558n 
 -657.90678m  699.9999m  536.5875n 
 -657.80678m  699.9999m  536.2195n 
 -657.70678m  699.9999m  535.8519n 
 -657.60678m  699.9999m  535.4845n 
 -657.50678m  699.9999m  535.1176n 
 -657.40678m  699.9999m  534.7509n 
 -657.30678m  699.9999m  534.3846n 
 -657.20678m  699.9999m  534.0186n 
 -657.10678m  699.9999m  533.6529n 
 -657.00678m  699.9999m  533.2876n 
 -656.90678m  699.9999m  532.9226n 
 -656.80678m  699.9999m  532.5579n 
 -656.70678m  699.9999m  532.1935n 
 -656.60678m  699.9999m  531.8295n 
 -656.50678m  699.9999m  531.4658n 
 -656.40678m  699.9999m  531.1024n 
 -656.30678m  699.9999m  530.7393n 
 -656.20678m  699.9999m  530.3766n 
 -656.10678m  699.9999m  530.0142n 
 -656.00678m  699.9999m  529.6521n 
 -655.90678m  699.9999m  529.2904n 
 -655.80678m  699.9999m  528.9289n 
 -655.70678m  699.9999m  528.5678n 
 -655.60678m  699.9999m  528.2070n 
 -655.50678m  699.9999m  527.8466n 
 -655.40678m  699.9999m  527.4864n 
 -655.30678m  699.9999m  527.1266n 
 -655.20678m  699.9999m  526.7671n 
 -655.10678m  699.9999m  526.4079n 
 -655.00678m  699.9999m  526.0491n 
 -654.90678m  699.9999m  525.6905n 
 -654.80678m  699.9999m  525.3323n 
 -654.70678m  699.9999m  524.9744n 
 -654.60678m  699.9999m  524.6169n 
 -654.50678m  699.9999m  524.2596n 
 -654.40678m  699.9999m  523.9027n 
 -654.30678m  699.9999m  523.5461n 
 -654.20678m  699.9999m  523.1898n 
 -654.10678m  699.9999m  522.8338n 
 -654.00678m  699.9999m  522.4781n 
 -653.90678m  699.9999m  522.1228n 
 -653.80678m  699.9999m  521.7678n 
 -653.70678m  699.9999m  521.4131n 
 -653.60678m  699.9999m  521.0587n 
 -653.50678m  699.9999m  520.7046n 
 -653.40678m  699.9999m  520.3508n 
 -653.30678m  699.9999m  519.9974n 
 -653.20678m  699.9999m  519.6442n 
 -653.10678m  699.9999m  519.2914n 
 -653.00678m  699.9999m  518.9389n 
 -652.90678m  699.9999m  518.5867n 
 -652.80678m  699.9999m  518.2349n 
 -652.70678m  699.9999m  517.8833n 
 -652.60678m  699.9999m  517.5321n 
 -652.50678m  699.9999m  517.1811n 
 -652.40678m  699.9999m  516.8305n 
 -652.30678m  699.9999m  516.4802n 
 -652.20678m  699.9999m  516.1302n 
 -652.10678m  699.9999m  515.7805n 
 -652.00678m  699.9999m  515.4312n 
 -651.90678m  699.9999m  515.0821n 
 -651.80678m  699.9999m  514.7334n 
 -651.70678m  699.9999m  514.3849n 
 -651.60678m  699.9999m  514.0368n 
 -651.50678m  699.9999m  513.6890n 
 -651.40678m  699.9999m  513.3415n 
 -651.30678m  699.9999m  512.9943n 
 -651.20678m  699.9999m  512.6474n 
 -651.10678m  699.9999m  512.3008n 
 -651.00678m  699.9999m  511.9545n 
 -650.90678m  699.9999m  511.6085n 
 -650.80678m  699.9999m  511.2629n 
 -650.70678m  699.9999m  510.9175n 
 -650.60678m  699.9999m  510.5725n 
 -650.50678m  699.9999m  510.2277n 
 -650.40678m  699.9999m  509.8833n 
 -650.30678m  699.9999m  509.5392n 
 -650.20678m  699.9999m  509.1954n 
 -650.10678m  699.9999m  508.8518n 
 -650.00678m  699.9999m  508.5086n 
 -649.90678m  699.9999m  508.1657n 
 -649.80678m  699.9999m  507.8231n 
 -649.70678m  699.9999m  507.4808n 
 -649.60678m  699.9999m  507.1388n 
 -649.50678m  699.9999m  506.7971n 
 -649.40678m  699.9999m  506.4557n 
 -649.30678m  699.9999m  506.1147n 
 -649.20678m  699.9999m  505.7739n 
 -649.10678m  699.9999m  505.4334n 
 -649.00678m  699.9999m  505.0932n 
 -648.90678m  699.9999m  504.7533n 
 -648.80678m  699.9999m  504.4138n 
 -648.70678m  699.9999m  504.0745n 
 -648.60678m  699.9999m  503.7355n 
 -648.50678m  699.9999m  503.3968n 
 -648.40678m  699.9999m  503.0585n 
 -648.30678m  699.9999m  502.7204n 
 -648.20678m  699.9999m  502.3826n 
 -648.10678m  699.9999m  502.0451n 
 -648.00678m  699.9999m  501.7079n 
 -647.90678m  699.9999m  501.3711n 
 -647.80678m  699.9999m  501.0345n 
 -647.70678m  699.9999m  500.6982n 
 -647.60678m  699.9999m  500.3622n 
 -647.50678m  699.9999m  500.0265n 
 -647.40678m  699.9999m  499.6911n 
 -647.30678m  699.9999m  499.3560n 
 -647.20678m  699.9999m  499.0212n 
 -647.10678m  699.9999m  498.6867n 
 -647.00678m  699.9999m  498.3525n 
 -646.90678m  699.9999m  498.0186n 
 -646.80678m  699.9999m  497.6850n 
 -646.70678m  699.9999m  497.3517n 
 -646.60678m  699.9999m  497.0186n 
 -646.50678m  699.9999m  496.6859n 
 -646.40678m  699.9999m  496.3535n 
 -646.30678m  699.9999m  496.0213n 
 -646.20678m  699.9999m  495.6895n 
 -646.10678m  699.9999m  495.3579n 
 -646.00678m  699.9999m  495.0266n 
 -645.90678m  699.9999m  494.6957n 
 -645.80678m  699.9999m  494.3650n 
 -645.70678m  699.9999m  494.0346n 
 -645.60678m  699.9999m  493.7045n 
 -645.50678m  699.9999m  493.3747n 
 -645.40678m  699.9999m  493.0452n 
 -645.30678m  699.9999m  492.7159n 
 -645.20678m  699.9999m  492.3870n 
 -645.10678m  699.9999m  492.0584n 
 -645.00678m  699.9999m  491.7300n 
 -644.90678m  699.9999m  491.4019n 
 -644.80678m  699.9999m  491.0742n 
 -644.70678m  699.9999m  490.7467n 
 -644.60678m  699.9999m  490.4195n 
 -644.50678m  699.9999m  490.0925n 
 -644.40678m  699.9999m  489.7659n 
 -644.30678m  699.9999m  489.4396n 
 -644.20678m  699.9999m  489.1135n 
 -644.10678m  699.9999m  488.7878n 
 -644.00678m  699.9999m  488.4623n 
 -643.90678m  699.9999m  488.1371n 
 -643.80678m  699.9999m  487.8122n 
 -643.70678m  699.9999m  487.4876n 
 -643.60678m  699.9999m  487.1632n 
 -643.50678m  699.9999m  486.8392n 
 -643.40678m  699.9999m  486.5154n 
 -643.30678m  699.9999m  486.1919n 
 -643.20678m  699.9999m  485.8687n 
 -643.10678m  699.9999m  485.5458n 
 -643.00678m  699.9999m  485.2232n 
 -642.90678m  699.9999m  484.9009n 
 -642.80678m  699.9999m  484.5788n 
 -642.70678m  699.9999m  484.2570n 
 -642.60678m  699.9999m  483.9355n 
 -642.50678m  699.9999m  483.6143n 
 -642.40678m  699.9999m  483.2934n 
 -642.30678m  699.9999m  482.9727n 
 -642.20678m  699.9999m  482.6524n 
 -642.10678m  699.9999m  482.3323n 
 -642.00678m  699.9999m  482.0125n 
 -641.90678m  699.9999m  481.6929n 
 -641.80678m  699.9999m  481.3737n 
 -641.70678m  699.9999m  481.0547n 
 -641.60678m  699.9999m  480.7360n 
 -641.50678m  699.9999m  480.4176n 
 -641.40678m  699.9999m  480.0995n 
 -641.30678m  699.9999m  479.7817n 
 -641.20678m  699.9999m  479.4641n 
 -641.10678m  699.9999m  479.1468n 
 -641.00678m  699.9999m  478.8298n 
 -640.90678m  699.9999m  478.5130n 
 -640.80678m  699.9999m  478.1966n 
 -640.70678m  699.9999m  477.8804n 
 -640.60678m  699.9999m  477.5645n 
 -640.50678m  699.9999m  477.2489n 
 -640.40678m  699.9999m  476.9335n 
 -640.30678m  699.9999m  476.6184n 
 -640.20678m  699.9999m  476.3036n 
 -640.10678m  699.9999m  475.9891n 
 -640.00678m  699.9999m  475.6749n 
 -639.90678m  699.9999m  475.3609n 
 -639.80678m  699.9999m  475.0472n 
 -639.70678m  699.9999m  474.7338n 
 -639.60678m  699.9999m  474.4206n 
 -639.50678m  699.9999m  474.1077n 
 -639.40678m  699.9999m  473.7951n 
 -639.30678m  699.9999m  473.4828n 
 -639.20678m  699.9999m  473.1707n 
 -639.10678m  699.9999m  472.8589n 
 -639.00678m  699.9999m  472.5474n 
 -638.90678m  699.9999m  472.2362n 
 -638.80678m  699.9999m  471.9252n 
 -638.70678m  699.9999m  471.6145n 
 -638.60678m  699.9999m  471.3041n 
 -638.50678m  699.9999m  470.9939n 
 -638.40678m  699.9999m  470.6840n 
 -638.30678m  699.9999m  470.3744n 
 -638.20678m  699.9999m  470.0651n 
 -638.10678m  699.9999m  469.7560n 
 -638.00678m  699.9999m  469.4472n 
 -637.90678m  699.9999m  469.1387n 
 -637.80678m  699.9999m  468.8304n 
 -637.70678m  699.9999m  468.5224n 
 -637.60678m  699.9999m  468.2146n 
 -637.50678m  699.9999m  467.9072n 
 -637.40678m  699.9999m  467.6000n 
 -637.30678m  699.9999m  467.2931n 
 -637.20678m  699.9999m  466.9864n 
 -637.10678m  699.9999m  466.6800n 
 -637.00678m  699.9999m  466.3739n 
 -636.90678m  699.9999m  466.0680n 
 -636.80678m  699.9999m  465.7624n 
 -636.70678m  699.9999m  465.4571n 
 -636.60678m  699.9999m  465.1520n 
 -636.50678m  699.9999m  464.8472n 
 -636.40678m  699.9999m  464.5427n 
 -636.30678m  699.9999m  464.2384n 
 -636.20678m  699.9999m  463.9344n 
 -636.10678m  699.9999m  463.6307n 
 -636.00678m  699.9999m  463.3272n 
 -635.90678m  699.9999m  463.0240n 
 -635.80678m  699.9999m  462.7210n 
 -635.70678m  699.9999m  462.4184n 
 -635.60678m  699.9999m  462.1159n 
 -635.50678m  699.9999m  461.8138n 
 -635.40678m  699.9999m  461.5119n 
 -635.30678m  699.9999m  461.2102n 
 -635.20678m  699.9999m  460.9089n 
 -635.10678m  699.9999m  460.6078n 
 -635.00678m  699.9999m  460.3069n 
 -634.90678m  699.9999m  460.0063n 
 -634.80678m  699.9999m  459.7060n 
 -634.70678m  699.9999m  459.4059n 
 -634.60678m  699.9999m  459.1061n 
 -634.50678m  699.9999m  458.8066n 
 -634.40678m  699.9999m  458.5073n 
 -634.30678m  699.9999m  458.2082n 
 -634.20678m  699.9999m  457.9095n 
 -634.10678m  699.9999m  457.6110n 
 -634.00678m  699.9999m  457.3127n 
 -633.90678m  699.9999m  457.0147n 
 -633.80678m  699.9999m  456.7170n 
 -633.70678m  699.9999m  456.4195n 
 -633.60678m  699.9999m  456.1223n 
 -633.50678m  699.9999m  455.8253n 
 -633.40678m  699.9999m  455.5286n 
 -633.30678m  699.9999m  455.2322n 
 -633.20678m  699.9999m  454.9360n 
 -633.10678m  699.9999m  454.6400n 
 -633.00678m  699.9999m  454.3443n 
 -632.90678m  699.9999m  454.0489n 
 -632.80678m  699.9999m  453.7538n 
 -632.70678m  699.9999m  453.4588n 
 -632.60678m  699.9999m  453.1642n 
 -632.50678m  699.9999m  452.8698n 
 -632.40678m  699.9999m  452.5756n 
 -632.30678m  699.9999m  452.2817n 
 -632.20678m  699.9999m  451.9881n 
 -632.10678m  699.9999m  451.6947n 
 -632.00678m  699.9999m  451.4016n 
 -631.90678m  699.9999m  451.1087n 
 -631.80678m  699.9999m  450.8161n 
 -631.70678m  699.9999m  450.5237n 
 -631.60678m  699.9999m  450.2316n 
 -631.50678m  699.9999m  449.9397n 
 -631.40678m  699.9999m  449.6481n 
 -631.30678m  699.9999m  449.3567n 
 -631.20678m  699.9999m  449.0656n 
 -631.10678m  699.9999m  448.7747n 
 -631.00678m  699.9999m  448.4841n 
 -630.90678m  699.9999m  448.1937n 
 -630.80678m  699.9999m  447.9036n 
 -630.70678m  699.9999m  447.6138n 
 -630.60678m  699.9999m  447.3241n 
 -630.50678m  699.9999m  447.0348n 
 -630.40678m  699.9999m  446.7457n 
 -630.30678m  699.9999m  446.4568n 
 -630.20678m  699.9999m  446.1682n 
 -630.10678m  699.9999m  445.8798n 
 -630.00678m  699.9999m  445.5917n 
 -629.90678m  699.9999m  445.3038n 
 -629.80678m  699.9999m  445.0162n 
 -629.70678m  699.9999m  444.7288n 
 -629.60678m  699.9999m  444.4417n 
 -629.50678m  699.9999m  444.1548n 
 -629.40678m  699.9999m  443.8681n 
 -629.30678m  699.9999m  443.5818n 
 -629.20678m  699.9999m  443.2956n 
 -629.10678m  699.9999m  443.0097n 
 -629.00678m  699.9999m  442.7241n 
 -628.90678m  699.9999m  442.4387n 
 -628.80678m  699.9999m  442.1535n 
 -628.70678m  699.9999m  441.8686n 
 -628.60678m  699.9999m  441.5839n 
 -628.50678m  699.9999m  441.2995n 
 -628.40678m  699.9999m  441.0153n 
 -628.30678m  699.9999m  440.7314n 
 -628.20678m  699.9999m  440.4477n 
 -628.10678m  699.9999m  440.1642n 
 -628.00678m  699.9999m  439.8810n 
 -627.90678m  699.9999m  439.5980n 
 -627.80678m  699.9999m  439.3153n 
 -627.70678m  699.9999m  439.0328n 
 -627.60678m  699.9999m  438.7506n 
 -627.50678m  699.9999m  438.4686n 
 -627.40678m  699.9999m  438.1868n 
 -627.30678m  699.9999m  437.9053n 
 -627.20678m  699.9999m  437.6240n 
 -627.10678m  699.9999m  437.3430n 
 -627.00678m  699.9999m  437.0622n 
 -626.90678m  699.9999m  436.7817n 
 -626.80678m  699.9999m  436.5014n 
 -626.70678m  699.9999m  436.2213n 
 -626.60678m  699.9999m  435.9415n 
 -626.50678m  699.9999m  435.6619n 
 -626.40678m  699.9999m  435.3825n 
 -626.30678m  699.9999m  435.1034n 
 -626.20678m  699.9999m  434.8245n 
 -626.10678m  699.9999m  434.5459n 
 -626.00678m  699.9999m  434.2675n 
 -625.90678m  699.9999m  433.9893n 
 -625.80678m  699.9999m  433.7114n 
 -625.70678m  699.9999m  433.4337n 
 -625.60678m  699.9999m  433.1563n 
 -625.50678m  699.9999m  432.8791n 
 -625.40678m  699.9999m  432.6021n 
 -625.30678m  699.9999m  432.3254n 
 -625.20678m  699.9999m  432.0489n 
 -625.10678m  699.9999m  431.7726n 
 -625.00678m  699.9999m  431.4966n 
 -624.90678m  699.9999m  431.2208n 
 -624.80678m  699.9999m  430.9452n 
 -624.70678m  699.9999m  430.6699n 
 -624.60678m  699.9999m  430.3948n 
 -624.50678m  699.9999m  430.1200n 
 -624.40678m  699.9999m  429.8454n 
 -624.30678m  699.9999m  429.5710n 
 -624.20678m  699.9999m  429.2968n 
 -624.10678m  699.9999m  429.0229n 
 -624.00678m  699.9999m  428.7492n 
 -623.90678m  699.9999m  428.4758n 
 -623.80678m  699.9999m  428.2026n 
 -623.70678m  699.9999m  427.9296n 
 -623.60678m  699.9999m  427.6568n 
 -623.50678m  699.9999m  427.3843n 
 -623.40678m  699.9999m  427.1120n 
 -623.30678m  699.9999m  426.8400n 
 -623.20678m  699.9999m  426.5681n 
 -623.10678m  699.9999m  426.2966n 
 -623.00678m  699.9999m  426.0252n 
 -622.90678m  699.9999m  425.7541n 
 -622.80678m  699.9999m  425.4832n 
 -622.70678m  699.9999m  425.2125n 
 -622.60678m  699.9999m  424.9421n 
 -622.50678m  699.9999m  424.6718n 
 -622.40678m  699.9999m  424.4019n 
 -622.30678m  699.9999m  424.1321n 
 -622.20678m  699.9999m  423.8626n 
 -622.10678m  699.9999m  423.5933n 
 -622.00678m  699.9999m  423.3242n 
 -621.90678m  699.9999m  423.0554n 
 -621.80678m  699.9999m  422.7868n 
 -621.70678m  699.9999m  422.5184n 
 -621.60678m  699.9999m  422.2503n 
 -621.50678m  699.9999m  421.9824n 
 -621.40678m  699.9999m  421.7147n 
 -621.30678m  699.9999m  421.4472n 
 -621.20678m  699.9999m  421.1800n 
 -621.10678m  699.9999m  420.9129n 
 -621.00678m  699.9999m  420.6462n 
 -620.90678m  699.9999m  420.3796n 
 -620.80678m  699.9999m  420.1133n 
 -620.70678m  699.9999m  419.8472n 
 -620.60678m  699.9999m  419.5813n 
 -620.50678m  699.9999m  419.3156n 
 -620.40678m  699.9999m  419.0502n 
 -620.30678m  699.9999m  418.7850n 
 -620.20678m  699.9999m  418.5200n 
 -620.10678m  699.9999m  418.2552n 
 -620.00678m  699.9999m  417.9907n 
 -619.90678m  699.9999m  417.7264n 
 -619.80678m  699.9999m  417.4623n 
 -619.70678m  699.9999m  417.1984n 
 -619.60678m  699.9999m  416.9348n 
 -619.50678m  699.9999m  416.6714n 
 -619.40678m  699.9999m  416.4082n 
 -619.30678m  699.9999m  416.1452n 
 -619.20678m  699.9999m  415.8824n 
 -619.10678m  699.9999m  415.6199n 
 -619.00678m  699.9999m  415.3576n 
 -618.90678m  699.9999m  415.0955n 
 -618.80678m  699.9999m  414.8337n 
 -618.70678m  699.9999m  414.5720n 
 -618.60678m  699.9999m  414.3106n 
 -618.50678m  699.9999m  414.0494n 
 -618.40678m  699.9999m  413.7884n 
 -618.30678m  699.9999m  413.5277n 
 -618.20678m  699.9999m  413.2671n 
 -618.10678m  699.9999m  413.0068n 
 -618.00678m  699.9999m  412.7467n 
 -617.90678m  699.9999m  412.4868n 
 -617.80678m  699.9999m  412.2271n 
 -617.70678m  699.9999m  411.9677n 
 -617.60678m  699.9999m  411.7085n 
 -617.50678m  699.9999m  411.4495n 
 -617.40678m  699.9999m  411.1907n 
 -617.30678m  699.9999m  410.9321n 
 -617.20678m  699.9999m  410.6738n 
 -617.10678m  699.9999m  410.4156n 
 -617.00678m  699.9999m  410.1577n 
 -616.90678m  699.9999m  409.9000n 
 -616.80678m  699.9999m  409.6425n 
 -616.70678m  699.9999m  409.3853n 
 -616.60678m  699.9999m  409.1282n 
 -616.50678m  699.9999m  408.8714n 
 -616.40678m  699.9999m  408.6148n 
 -616.30678m  699.9999m  408.3584n 
 -616.20678m  699.9999m  408.1022n 
 -616.10678m  699.9999m  407.8462n 
 -616.00678m  699.9999m  407.5905n 
 -615.90678m  699.9999m  407.3349n 
 -615.80678m  699.9999m  407.0796n 
 -615.70678m  699.9999m  406.8245n 
 -615.60678m  699.9999m  406.5696n 
 -615.50678m  699.9999m  406.3149n 
 -615.40678m  699.9999m  406.0604n 
 -615.30678m  699.9999m  405.8062n 
 -615.20678m  699.9999m  405.5521n 
 -615.10678m  699.9999m  405.2983n 
 -615.00678m  699.9999m  405.0447n 
 -614.90678m  699.9999m  404.7913n 
 -614.80678m  699.9999m  404.5381n 
 -614.70678m  699.9999m  404.2851n 
 -614.60678m  699.9999m  404.0324n 
 -614.50678m  699.9999m  403.7798n 
 -614.40678m  699.9999m  403.5275n 
 -614.30678m  699.9999m  403.2753n 
 -614.20678m  699.9999m  403.0234n 
 -614.10678m  699.9999m  402.7717n 
 -614.00678m  699.9999m  402.5202n 
 -613.90678m  699.9999m  402.2689n 
 -613.80678m  699.9999m  402.0179n 
 -613.70678m  699.9999m  401.7670n 
 -613.60678m  699.9999m  401.5163n 
 -613.50678m  699.9999m  401.2659n 
 -613.40678m  699.9999m  401.0157n 
 -613.30678m  699.9999m  400.7656n 
 -613.20678m  699.9999m  400.5158n 
 -613.10678m  699.9999m  400.2662n 
 -613.00678m  699.9999m  400.0168n 
 -612.90678m  699.9999m  399.7676n 
 -612.80678m  699.9999m  399.5186n 
 -612.70678m  699.9999m  399.2699n 
 -612.60678m  699.9999m  399.0213n 
 -612.50678m  699.9999m  398.7729n 
 -612.40678m  699.9999m  398.5248n 
 -612.30678m  699.9999m  398.2768n 
 -612.20678m  699.9999m  398.0291n 
 -612.10678m  699.9999m  397.7816n 
 -612.00678m  699.9999m  397.5342n 
 -611.90678m  699.9999m  397.2871n 
 -611.80678m  699.9999m  397.0402n 
 -611.70678m  699.9999m  396.7935n 
 -611.60678m  699.9999m  396.5470n 
 -611.50678m  699.9999m  396.3007n 
 -611.40678m  699.9999m  396.0546n 
 -611.30678m  699.9999m  395.8087n 
 -611.20678m  699.9999m  395.5631n 
 -611.10678m  699.9999m  395.3176n 
 -611.00678m  699.9999m  395.0723n 
 -610.90678m  699.9999m  394.8273n 
 -610.80678m  699.9999m  394.5824n 
 -610.70678m  699.9999m  394.3377n 
 -610.60678m  699.9999m  394.0933n 
 -610.50678m  699.9999m  393.8490n 
 -610.40678m  699.9999m  393.6050n 
 -610.30678m  699.9999m  393.3611n 
 -610.20678m  699.9999m  393.1175n 
 -610.10678m  699.9999m  392.8741n 
 -610.00678m  699.9999m  392.6308n 
 -609.90678m  699.9999m  392.3878n 
 -609.80678m  699.9999m  392.1450n 
 -609.70678m  699.9999m  391.9023n 
 -609.60678m  699.9999m  391.6599n 
 -609.50678m  699.9999m  391.4177n 
 -609.40678m  699.9999m  391.1757n 
 -609.30678m  699.9999m  390.9338n 
 -609.20678m  699.9999m  390.6922n 
 -609.10678m  699.9999m  390.4508n 
 -609.00678m  699.9999m  390.2096n 
 -608.90678m  699.9999m  389.9686n 
 -608.80678m  699.9999m  389.7277n 
 -608.70678m  699.9999m  389.4871n 
 -608.60678m  699.9999m  389.2467n 
 -608.50678m  699.9999m  389.0065n 
 -608.40678m  699.9999m  388.7664n 
 -608.30678m  699.9999m  388.5266n 
 -608.20678m  699.9999m  388.2870n 
 -608.10678m  699.9999m  388.0476n 
 -608.00678m  699.9999m  387.8083n 
 -607.90678m  699.9999m  387.5693n 
 -607.80678m  699.9999m  387.3305n 
 -607.70678m  699.9999m  387.0918n 
 -607.60678m  699.9999m  386.8534n 
 -607.50678m  699.9999m  386.6152n 
 -607.40678m  699.9999m  386.3771n 
 -607.30678m  699.9999m  386.1393n 
 -607.20678m  699.9999m  385.9016n 
 -607.10678m  699.9999m  385.6642n 
 -607.00678m  699.9999m  385.4269n 
 -606.90678m  699.9999m  385.1899n 
 -606.80678m  699.9999m  384.9530n 
 -606.70678m  699.9999m  384.7163n 
 -606.60678m  699.9999m  384.4799n 
 -606.50678m  699.9999m  384.2436n 
 -606.40678m  699.9999m  384.0075n 
 -606.30678m  699.9999m  383.7716n 
 -606.20678m  699.9999m  383.5359n 
 -606.10678m  699.9999m  383.3004n 
 -606.00678m  699.9999m  383.0651n 
 -605.90678m  699.9999m  382.8300n 
 -605.80678m  699.9999m  382.5951n 
 -605.70678m  699.9999m  382.3604n 
 -605.60678m  699.9999m  382.1259n 
 -605.50678m  699.9999m  381.8915n 
 -605.40678m  699.9999m  381.6574n 
 -605.30678m  699.9999m  381.4234n 
 -605.20678m  699.9999m  381.1897n 
 -605.10678m  699.9999m  380.9561n 
 -605.00678m  699.9999m  380.7228n 
 -604.90678m  699.9999m  380.4896n 
 -604.80678m  699.9999m  380.2566n 
 -604.70678m  699.9999m  380.0238n 
 -604.60678m  699.9999m  379.7912n 
 -604.50678m  699.9999m  379.5588n 
 -604.40678m  699.9999m  379.3266n 
 -604.30678m  699.9999m  379.0946n 
 -604.20678m  699.9999m  378.8627n 
 -604.10678m  699.9999m  378.6311n 
 -604.00678m  699.9999m  378.3996n 
 -603.90678m  699.9999m  378.1684n 
 -603.80678m  699.9999m  377.9373n 
 -603.70678m  699.9999m  377.7064n 
 -603.60678m  699.9999m  377.4757n 
 -603.50678m  699.9999m  377.2452n 
 -603.40678m  699.9999m  377.0149n 
 -603.30678m  699.9999m  376.7848n 
 -603.20678m  699.9999m  376.5548n 
 -603.10678m  699.9999m  376.3251n 
 -603.00678m  699.9999m  376.0955n 
 -602.90678m  699.9999m  375.8661n 
 -602.80678m  699.9999m  375.6370n 
 -602.70678m  699.9999m  375.4080n 
 -602.60678m  699.9999m  375.1792n 
 -602.50678m  699.9999m  374.9505n 
 -602.40678m  699.9999m  374.7221n 
 -602.30678m  699.9999m  374.4939n 
 -602.20678m  699.9999m  374.2658n 
 -602.10678m  699.9999m  374.0379n 
 -602.00678m  699.9999m  373.8102n 
 -601.90678m  699.9999m  373.5827n 
 -601.80678m  699.9999m  373.3554n 
 -601.70678m  699.9999m  373.1283n 
 -601.60678m  699.9999m  372.9014n 
 -601.50678m  699.9999m  372.6746n 
 -601.40678m  699.9999m  372.4481n 
 -601.30678m  699.9999m  372.2217n 
 -601.20678m  699.9999m  371.9955n 
 -601.10678m  699.9999m  371.7695n 
 -601.00678m  699.9999m  371.5436n 
 -600.90678m  699.9999m  371.3180n 
 -600.80678m  699.9999m  371.0925n 
 -600.70678m  699.9999m  370.8673n 
 -600.60678m  699.9999m  370.6422n 
 -600.50678m  699.9999m  370.4173n 
 -600.40678m  699.9999m  370.1925n 
 -600.30678m  699.9999m  369.9680n 
 -600.20678m  699.9999m  369.7437n 
 -600.10678m  699.9999m  369.5195n 
 -600.00678m  699.9999m  369.2955n 
 -599.90678m  699.9999m  369.0717n 
 -599.80678m  699.9999m  368.8481n 
 -599.70678m  699.9999m  368.6246n 
 -599.60678m  699.9999m  368.4014n 
 -599.50678m  699.9999m  368.1783n 
 -599.40678m  699.9999m  367.9554n 
 -599.30678m  699.9999m  367.7327n 
 -599.20678m  699.9999m  367.5102n 
 -599.10678m  699.9999m  367.2878n 
 -599.00678m  699.9999m  367.0656n 
 -598.90678m  699.9999m  366.8436n 
 -598.80678m  699.9999m  366.6218n 
 -598.70678m  699.9999m  366.4002n 
 -598.60678m  699.9999m  366.1788n 
 -598.50678m  699.9999m  365.9575n 
 -598.40678m  699.9999m  365.7364n 
 -598.30678m  699.9999m  365.5155n 
 -598.20678m  699.9999m  365.2948n 
 -598.10678m  699.9999m  365.0742n 
 -598.00678m  699.9999m  364.8539n 
 -597.90678m  699.9999m  364.6337n 
 -597.80678m  699.9999m  364.4137n 
 -597.70678m  699.9999m  364.1938n 
 -597.60678m  699.9999m  363.9742n 
 -597.50678m  699.9999m  363.7547n 
 -597.40678m  699.9999m  363.5354n 
 -597.30678m  699.9999m  363.3163n 
 -597.20678m  699.9999m  363.0974n 
 -597.10678m  699.9999m  362.8786n 
 -597.00678m  699.9999m  362.6600n 
 -596.90678m  699.9999m  362.4416n 
 -596.80678m  699.9999m  362.2234n 
 -596.70678m  699.9999m  362.0053n 
 -596.60678m  699.9999m  361.7875n 
 -596.50678m  699.9999m  361.5698n 
 -596.40678m  699.9999m  361.3522n 
 -596.30678m  699.9999m  361.1349n 
 -596.20678m  699.9999m  360.9177n 
 -596.10678m  699.9999m  360.7007n 
 -596.00678m  699.9999m  360.4839n 
 -595.90678m  699.9999m  360.2673n 
 -595.80678m  699.9999m  360.0508n 
 -595.70678m  699.9999m  359.8345n 
 -595.60678m  699.9999m  359.6184n 
 -595.50678m  699.9999m  359.4024n 
 -595.40678m  699.9999m  359.1867n 
 -595.30678m  699.9999m  358.9711n 
 -595.20678m  699.9999m  358.7557n 
 -595.10678m  699.9999m  358.5404n 
 -595.00678m  699.9999m  358.3254n 
 -594.90678m  699.9999m  358.1105n 
 -594.80678m  699.9999m  357.8957n 
 -594.70678m  699.9999m  357.6812n 
 -594.60678m  699.9999m  357.4668n 
 -594.50678m  699.9999m  357.2526n 
 -594.40678m  699.9999m  357.0386n 
 -594.30678m  699.9999m  356.8247n 
 -594.20678m  699.9999m  356.6110n 
 -594.10678m  699.9999m  356.3975n 
 -594.00678m  699.9999m  356.1842n 
 -593.90678m  699.9999m  355.9710n 
 -593.80678m  699.9999m  355.7580n 
 -593.70678m  699.9999m  355.5452n 
 -593.60678m  699.9999m  355.3325n 
 -593.50678m  699.9999m  355.1201n 
 -593.40678m  699.9999m  354.9078n 
 -593.30678m  699.9999m  354.6956n 
 -593.20678m  699.9999m  354.4837n 
 -593.10678m  699.9999m  354.2719n 
 -593.00678m  699.9999m  354.0602n 
 -592.90678m  699.9999m  353.8488n 
 -592.80678m  699.9999m  353.6375n 
 -592.70678m  699.9999m  353.4264n 
 -592.60678m  699.9999m  353.2154n 
 -592.50678m  699.9999m  353.0046n 
 -592.40678m  699.9999m  352.7940n 
 -592.30678m  699.9999m  352.5836n 
 -592.20678m  699.9999m  352.3733n 
 -592.10678m  699.9999m  352.1632n 
 -592.00678m  699.9999m  351.9533n 
 -591.90678m  699.9999m  351.7435n 
 -591.80678m  699.9999m  351.5339n 
 -591.70678m  699.9999m  351.3245n 
 -591.60678m  699.9999m  351.1153n 
 -591.50678m  699.9999m  350.9062n 
 -591.40678m  699.9999m  350.6973n 
 -591.30678m  699.9999m  350.4885n 
 -591.20678m  699.9999m  350.2799n 
 -591.10678m  699.9999m  350.0715n 
 -591.00678m  699.9999m  349.8632n 
 -590.90678m  699.9999m  349.6552n 
 -590.80678m  699.9999m  349.4472n 
 -590.70678m  699.9999m  349.2395n 
 -590.60678m  699.9999m  349.0319n 
 -590.50678m  699.9999m  348.8245n 
 -590.40678m  699.9999m  348.6172n 
 -590.30678m  699.9999m  348.4102n 
 -590.20678m  699.9999m  348.2032n 
 -590.10678m  699.9999m  347.9965n 
 -590.00678m  699.9999m  347.7899n 
 -589.90678m  699.9999m  347.5835n 
 -589.80678m  699.9999m  347.3772n 
 -589.70678m  699.9999m  347.1711n 
 -589.60678m  699.9999m  346.9652n 
 -589.50678m  699.9999m  346.7594n 
 -589.40678m  699.9999m  346.5538n 
 -589.30678m  699.9999m  346.3484n 
 -589.20678m  699.9999m  346.1431n 
 -589.10678m  699.9999m  345.9380n 
 -589.00678m  699.9999m  345.7331n 
 -588.90678m  699.9999m  345.5283n 
 -588.80678m  699.9999m  345.3237n 
 -588.70678m  699.9999m  345.1192n 
 -588.60678m  699.9999m  344.9149n 
 -588.50678m  699.9999m  344.7108n 
 -588.40678m  699.9999m  344.5068n 
 -588.30678m  699.9999m  344.3030n 
 -588.20678m  699.9999m  344.0994n 
 -588.10678m  699.9999m  343.8959n 
 -588.00678m  699.9999m  343.6926n 
 -587.90678m  699.9999m  343.4894n 
 -587.80678m  699.9999m  343.2865n 
 -587.70678m  699.9999m  343.0836n 
 -587.60678m  699.9999m  342.8810n 
 -587.50678m  699.9999m  342.6785n 
 -587.40678m  699.9999m  342.4761n 
 -587.30678m  699.9999m  342.2739n 
 -587.20678m  699.9999m  342.0719n 
 -587.10678m  699.9999m  341.8700n 
 -587.00678m  699.9999m  341.6683n 
 -586.90678m  699.9999m  341.4668n 
 -586.80678m  699.9999m  341.2654n 
 -586.70678m  699.9999m  341.0642n 
 -586.60678m  699.9999m  340.8631n 
 -586.50678m  699.9999m  340.6622n 
 -586.40678m  699.9999m  340.4615n 
 -586.30678m  699.9999m  340.2609n 
 -586.20678m  699.9999m  340.0605n 
 -586.10678m  699.9999m  339.8602n 
 -586.00678m  699.9999m  339.6601n 
 -585.90678m  699.9999m  339.4602n 
 -585.80678m  699.9999m  339.2604n 
 -585.70678m  699.9999m  339.0608n 
 -585.60678m  699.9999m  338.8613n 
 -585.50678m  699.9999m  338.6620n 
 -585.40678m  699.9999m  338.4628n 
 -585.30678m  699.9999m  338.2638n 
 -585.20678m  699.9999m  338.0650n 
 -585.10678m  699.9999m  337.8663n 
 -585.00678m  699.9999m  337.6678n 
 -584.90678m  699.9999m  337.4694n 
 -584.80678m  699.9999m  337.2712n 
 -584.70678m  699.9999m  337.0732n 
 -584.60678m  699.9999m  336.8753n 
 -584.50678m  699.9999m  336.6775n 
 -584.40678m  699.9999m  336.4799n 
 -584.30678m  699.9999m  336.2825n 
 -584.20678m  699.9999m  336.0852n 
 -584.10678m  699.9999m  335.8881n 
 -584.00678m  699.9999m  335.6912n 
 -583.90678m  699.9999m  335.4944n 
 -583.80678m  699.9999m  335.2977n 
 -583.70678m  699.9999m  335.1012n 
 -583.60678m  699.9999m  334.9049n 
 -583.50678m  699.9999m  334.7087n 
 -583.40678m  699.9999m  334.5127n 
 -583.30678m  699.9999m  334.3168n 
 -583.20678m  699.9999m  334.1211n 
 -583.10678m  699.9999m  333.9255n 
 -583.00678m  699.9999m  333.7301n 
 -582.90678m  699.9999m  333.5349n 
 -582.80678m  699.9999m  333.3398n 
 -582.70678m  699.9999m  333.1448n 
 -582.60678m  699.9999m  332.9500n 
 -582.50678m  699.9999m  332.7554n 
 -582.40678m  699.9999m  332.5609n 
 -582.30678m  699.9999m  332.3666n 
 -582.20678m  699.9999m  332.1724n 
 -582.10678m  699.9999m  331.9783n 
 -582.00678m  699.9999m  331.7845n 
 -581.90678m  699.9999m  331.5908n 
 -581.80678m  699.9999m  331.3972n 
 -581.70678m  699.9999m  331.2038n 
 -581.60678m  699.9999m  331.0105n 
 -581.50678m  699.9999m  330.8174n 
 -581.40678m  699.9999m  330.6244n 
 -581.30678m  699.9999m  330.4316n 
 -581.20678m  699.9999m  330.2390n 
 -581.10678m  699.9999m  330.0464n 
 -581.00678m  699.9999m  329.8541n 
 -580.90678m  699.9999m  329.6619n 
 -580.80678m  699.9999m  329.4698n 
 -580.70678m  699.9999m  329.2779n 
 -580.60678m  699.9999m  329.0862n 
 -580.50678m  699.9999m  328.8946n 
 -580.40678m  699.9999m  328.7031n 
 -580.30678m  699.9999m  328.5118n 
 -580.20678m  699.9999m  328.3207n 
 -580.10678m  699.9999m  328.1297n 
 -580.00678m  699.9999m  327.9388n 
 -579.90678m  699.9999m  327.7481n 
 -579.80678m  699.9999m  327.5576n 
 -579.70678m  699.9999m  327.3672n 
 -579.60678m  699.9999m  327.1769n 
 -579.50678m  699.9999m  326.9868n 
 -579.40678m  699.9999m  326.7968n 
 -579.30678m  699.9999m  326.6070n 
 -579.20678m  699.9999m  326.4174n 
 -579.10678m  699.9999m  326.2279n 
 -579.00678m  699.9999m  326.0385n 
 -578.90678m  699.9999m  325.8493n 
 -578.80678m  699.9999m  325.6602n 
 -578.70678m  699.9999m  325.4713n 
 -578.60678m  699.9999m  325.2825n 
 -578.50678m  699.9999m  325.0939n 
 -578.40678m  699.9999m  324.9054n 
 -578.30678m  699.9999m  324.7171n 
 -578.20678m  699.9999m  324.5289n 
 -578.10678m  699.9999m  324.3409n 
 -578.00678m  699.9999m  324.1530n 
 -577.90678m  699.9999m  323.9652n 
 -577.80678m  699.9999m  323.7776n 
 -577.70678m  699.9999m  323.5902n 
 -577.60678m  699.9999m  323.4029n 
 -577.50678m  699.9999m  323.2157n 
 -577.40678m  699.9999m  323.0287n 
 -577.30678m  699.9999m  322.8419n 
 -577.20678m  699.9999m  322.6551n 
 -577.10678m  699.9999m  322.4686n 
 -577.00678m  699.9999m  322.2821n 
 -576.90678m  699.9999m  322.0958n 
 -576.80678m  699.9999m  321.9097n 
 -576.70678m  699.9999m  321.7237n 
 -576.60678m  699.9999m  321.5379n 
 -576.50678m  699.9999m  321.3522n 
 -576.40678m  699.9999m  321.1666n 
 -576.30678m  699.9999m  320.9812n 
 -576.20678m  699.9999m  320.7959n 
 -576.10678m  699.9999m  320.6108n 
 -576.00678m  699.9999m  320.4258n 
 -575.90678m  699.9999m  320.2410n 
 -575.80678m  699.9999m  320.0563n 
 -575.70678m  699.9999m  319.8717n 
 -575.60678m  699.9999m  319.6873n 
 -575.50678m  699.9999m  319.5030n 
 -575.40678m  699.9999m  319.3189n 
 -575.30678m  699.9999m  319.1349n 
 -575.20678m  699.9999m  318.9511n 
 -575.10678m  699.9999m  318.7674n 
 -575.00678m  699.9999m  318.5838n 
 -574.90678m  699.9999m  318.4004n 
 -574.80678m  699.9999m  318.2171n 
 -574.70678m  699.9999m  318.0340n 
 -574.60678m  699.9999m  317.8510n 
 -574.50678m  699.9999m  317.6682n 
 -574.40678m  699.9999m  317.4855n 
 -574.30678m  699.9999m  317.3029n 
 -574.20678m  699.9999m  317.1205n 
 -574.10678m  699.9999m  316.9382n 
 -574.00678m  699.9999m  316.7561n 
 -573.90678m  699.9999m  316.5741n 
 -573.80678m  699.9999m  316.3922n 
 -573.70678m  699.9999m  316.2105n 
 -573.60678m  699.9999m  316.0289n 
 -573.50678m  699.9999m  315.8475n 
 -573.40678m  699.9999m  315.6662n 
 -573.30678m  699.9999m  315.4851n 
 -573.20678m  699.9999m  315.3040n 
 -573.10678m  699.9999m  315.1232n 
 -573.00678m  699.9999m  314.9424n 
 -572.90678m  699.9999m  314.7618n 
 -572.80678m  699.9999m  314.5814n 
 -572.70678m  699.9999m  314.4011n 
 -572.60678m  699.9999m  314.2209n 
 -572.50678m  699.9999m  314.0408n 
 -572.40678m  699.9999m  313.8609n 
 -572.30678m  699.9999m  313.6812n 
 -572.20678m  699.9999m  313.5016n 
 -572.10678m  699.9999m  313.3221n 
 -572.00678m  699.9999m  313.1427n 
 -571.90678m  699.9999m  312.9635n 
 -571.80678m  699.9999m  312.7844n 
 -571.70678m  699.9999m  312.6055n 
 -571.60678m  699.9999m  312.4267n 
 -571.50678m  699.9999m  312.2481n 
 -571.40678m  699.9999m  312.0695n 
 -571.30678m  699.9999m  311.8912n 
 -571.20678m  699.9999m  311.7129n 
 -571.10678m  699.9999m  311.5348n 
 -571.00678m  699.9999m  311.3568n 
 -570.90678m  699.9999m  311.1790n 
 -570.80678m  699.9999m  311.0013n 
 -570.70678m  699.9999m  310.8237n 
 -570.60678m  699.9999m  310.6463n 
 -570.50678m  699.9999m  310.4690n 
 -570.40678m  699.9999m  310.2919n 
 -570.30678m  699.9999m  310.1148n 
 -570.20678m  699.9999m  309.9380n 
 -570.10678m  699.9999m  309.7612n 
 -570.00678m  699.9999m  309.5846n 
 -569.90678m  699.9999m  309.4081n 
 -569.80678m  699.9999m  309.2318n 
 -569.70678m  699.9999m  309.0556n 
 -569.60678m  699.9999m  308.8795n 
 -569.50678m  699.9999m  308.7036n 
 -569.40678m  699.9999m  308.5278n 
 -569.30678m  699.9999m  308.3521n 
 -569.20678m  699.9999m  308.1766n 
 -569.10678m  699.9999m  308.0012n 
 -569.00678m  699.9999m  307.8259n 
 -568.90678m  699.9999m  307.6508n 
 -568.80678m  699.9999m  307.4758n 
 -568.70678m  699.9999m  307.3009n 
 -568.60678m  699.9999m  307.1262n 
 -568.50678m  699.9999m  306.9516n 
 -568.40678m  699.9999m  306.7772n 
 -568.30678m  699.9999m  306.6028n 
 -568.20678m  699.9999m  306.4286n 
 -568.10678m  699.9999m  306.2546n 
 -568.00678m  699.9999m  306.0806n 
 -567.90678m  699.9999m  305.9068n 
 -567.80678m  699.9999m  305.7332n 
 -567.70678m  699.9999m  305.5597n 
 -567.60678m  699.9999m  305.3863n 
 -567.50678m  699.9999m  305.2130n 
 -567.40678m  699.9999m  305.0399n 
 -567.30678m  699.9999m  304.8668n 
 -567.20678m  699.9999m  304.6940n 
 -567.10678m  699.9999m  304.5212n 
 -567.00678m  699.9999m  304.3486n 
 -566.90678m  699.9999m  304.1762n 
 -566.80678m  699.9999m  304.0038n 
 -566.70678m  699.9999m  303.8316n 
 -566.60678m  699.9999m  303.6595n 
 -566.50678m  699.9999m  303.4876n 
 -566.40678m  699.9999m  303.3157n 
 -566.30678m  699.9999m  303.1440n 
 -566.20678m  699.9999m  302.9725n 
 -566.10678m  699.9999m  302.8011n 
 -566.00678m  699.9999m  302.6298n 
 -565.90678m  699.9999m  302.4586n 
 -565.80678m  699.9999m  302.2876n 
 -565.70678m  699.9999m  302.1166n 
 -565.60678m  699.9999m  301.9459n 
 -565.50678m  699.9999m  301.7752n 
 -565.40678m  699.9999m  301.6047n 
 -565.30678m  699.9999m  301.4343n 
 -565.20678m  699.9999m  301.2640n 
 -565.10678m  699.9999m  301.0939n 
 -565.00678m  699.9999m  300.9239n 
 -564.90678m  699.9999m  300.7540n 
 -564.80678m  699.9999m  300.5843n 
 -564.70678m  699.9999m  300.4147n 
 -564.60678m  699.9999m  300.2452n 
 -564.50678m  699.9999m  300.0758n 
 -564.40678m  699.9999m  299.9066n 
 -564.30678m  699.9999m  299.7375n 
 -564.20678m  699.9999m  299.5685n 
 -564.10678m  699.9999m  299.3996n 
 -564.00678m  699.9999m  299.2309n 
 -563.90678m  699.9999m  299.0623n 
 -563.80678m  699.9999m  298.8939n 
 -563.70678m  699.9999m  298.7255n 
 -563.60678m  699.9999m  298.5573n 
 -563.50678m  699.9999m  298.3892n 
 -563.40678m  699.9999m  298.2213n 
 -563.30678m  699.9999m  298.0534n 
 -563.20678m  699.9999m  297.8857n 
 -563.10678m  699.9999m  297.7181n 
 -563.00678m  699.9999m  297.5507n 
 -562.90678m  699.9999m  297.3834n 
 -562.80678m  699.9999m  297.2162n 
 -562.70678m  699.9999m  297.0491n 
 -562.60678m  699.9999m  296.8821n 
 -562.50678m  699.9999m  296.7153n 
 -562.40678m  699.9999m  296.5486n 
 -562.30678m  699.9999m  296.3821n 
 -562.20678m  699.9999m  296.2156n 
 -562.10678m  699.9999m  296.0493n 
 -562.00678m  699.9999m  295.8831n 
 -561.90678m  699.9999m  295.7170n 
 -561.80678m  699.9999m  295.5511n 
 -561.70678m  699.9999m  295.3853n 
 -561.60678m  699.9999m  295.2196n 
 -561.50678m  699.9999m  295.0540n 
 -561.40678m  699.9999m  294.8886n 
 -561.30678m  699.9999m  294.7232n 
 -561.20678m  699.9999m  294.5580n 
 -561.10678m  699.9999m  294.3930n 
 -561.00678m  699.9999m  294.2280n 
 -560.90678m  699.9999m  294.0632n 
 -560.80678m  699.9999m  293.8985n 
 -560.70678m  699.9999m  293.7339n 
 -560.60678m  699.9999m  293.5694n 
 -560.50678m  699.9999m  293.4051n 
 -560.40678m  699.9999m  293.2409n 
 -560.30678m  699.9999m  293.0768n 
 -560.20678m  699.9999m  292.9129n 
 -560.10678m  699.9999m  292.7490n 
 -560.00678m  699.9999m  292.5853n 
 -559.90678m  699.9999m  292.4217n 
 -559.80678m  699.9999m  292.2582n 
 -559.70678m  699.9999m  292.0949n 
 -559.60678m  699.9999m  291.9317n 
 -559.50678m  699.9999m  291.7686n 
 -559.40678m  699.9999m  291.6056n 
 -559.30678m  699.9999m  291.4427n 
 -559.20678m  699.9999m  291.2800n 
 -559.10678m  699.9999m  291.1174n 
 -559.00678m  699.9999m  290.9549n 
 -558.90678m  699.9999m  290.7925n 
 -558.80678m  699.9999m  290.6302n 
 -558.70678m  699.9999m  290.4681n 
 -558.60678m  699.9999m  290.3061n 
 -558.50678m  699.9999m  290.1442n 
 -558.40678m  699.9999m  289.9824n 
 -558.30678m  699.9999m  289.8208n 
 -558.20678m  699.9999m  289.6592n 
 -558.10678m  699.9999m  289.4978n 
 -558.00678m  699.9999m  289.3365n 
 -557.90678m  699.9999m  289.1754n 
 -557.80678m  699.9999m  289.0143n 
 -557.70678m  699.9999m  288.8534n 
 -557.60678m  699.9999m  288.6926n 
 -557.50678m  699.9999m  288.5319n 
 -557.40678m  699.9999m  288.3713n 
 -557.30678m  699.9999m  288.2109n 
 -557.20678m  699.9999m  288.0506n 
 -557.10678m  699.9999m  287.8903n 
 -557.00678m  699.9999m  287.7303n 
 -556.90678m  699.9999m  287.5703n 
 -556.80678m  699.9999m  287.4104n 
 -556.70678m  699.9999m  287.2507n 
 -556.60678m  699.9999m  287.0911n 
 -556.50678m  699.9999m  286.9316n 
 -556.40678m  699.9999m  286.7722n 
 -556.30678m  699.9999m  286.6129n 
 -556.20678m  699.9999m  286.4538n 
 -556.10678m  699.9999m  286.2948n 
 -556.00678m  699.9999m  286.1359n 
 -555.90678m  699.9999m  285.9771n 
 -555.80678m  699.9999m  285.8184n 
 -555.70678m  699.9999m  285.6599n 
 -555.60678m  699.9999m  285.5014n 
 -555.50678m  699.9999m  285.3431n 
 -555.40678m  699.9999m  285.1849n 
 -555.30678m  699.9999m  285.0268n 
 -555.20678m  699.9999m  284.8689n 
 -555.10678m  699.9999m  284.7110n 
 -555.00678m  699.9999m  284.5533n 
 -554.90678m  699.9999m  284.3957n 
 -554.80678m  699.9999m  284.2382n 
 -554.70678m  699.9999m  284.0808n 
 -554.60678m  699.9999m  283.9235n 
 -554.50678m  699.9999m  283.7664n 
 -554.40678m  699.9999m  283.6093n 
 -554.30678m  699.9999m  283.4524n 
 -554.20678m  699.9999m  283.2956n 
 -554.10678m  699.9999m  283.1389n 
 -554.00678m  699.9999m  282.9823n 
 -553.90678m  699.9999m  282.8259n 
 -553.80678m  699.9999m  282.6695n 
 -553.70678m  699.9999m  282.5133n 
 -553.60678m  699.9999m  282.3572n 
 -553.50678m  699.9999m  282.2012n 
 -553.40678m  699.9999m  282.0453n 
 -553.30678m  699.9999m  281.8896n 
 -553.20678m  699.9999m  281.7339n 
 -553.10678m  699.9999m  281.5784n 
 -553.00678m  699.9999m  281.4230n 
 -552.90678m  699.9999m  281.2677n 
 -552.80678m  699.9999m  281.1125n 
 -552.70678m  699.9999m  280.9574n 
 -552.60678m  699.9999m  280.8024n 
 -552.50678m  699.9999m  280.6476n 
 -552.40678m  699.9999m  280.4928n 
 -552.30678m  699.9999m  280.3382n 
 -552.20678m  699.9999m  280.1837n 
 -552.10678m  699.9999m  280.0293n 
 -552.00678m  699.9999m  279.8750n 
 -551.90678m  699.9999m  279.7209n 
 -551.80678m  699.9999m  279.5668n 
 -551.70678m  699.9999m  279.4129n 
 -551.60678m  699.9999m  279.2590n 
 -551.50678m  699.9999m  279.1053n 
 -551.40678m  699.9999m  278.9517n 
 -551.30678m  699.9999m  278.7982n 
 -551.20678m  699.9999m  278.6448n 
 -551.10678m  699.9999m  278.4916n 
 -551.00678m  699.9999m  278.3384n 
 -550.90678m  699.9999m  278.1854n 
 -550.80678m  699.9999m  278.0324n 
 -550.70678m  699.9999m  277.8796n 
 -550.60678m  699.9999m  277.7269n 
 -550.50678m  699.9999m  277.5743n 
 -550.40678m  699.9999m  277.4218n 
 -550.30678m  699.9999m  277.2695n 
 -550.20678m  699.9999m  277.1172n 
 -550.10678m  699.9999m  276.9651n 
 -550.00678m  699.9999m  276.8130n 
 -549.90678m  699.9999m  276.6611n 
 -549.80678m  699.9999m  276.5093n 
 -549.70678m  699.9999m  276.3576n 
 -549.60678m  699.9999m  276.2060n 
 -549.50678m  699.9999m  276.0545n 
 -549.40678m  699.9999m  275.9031n 
 -549.30678m  699.9999m  275.7519n 
 -549.20678m  699.9999m  275.6007n 
 -549.10678m  699.9999m  275.4497n 
 -549.00678m  699.9999m  275.2987n 
 -548.90678m  699.9999m  275.1479n 
 -548.80678m  699.9999m  274.9972n 
 -548.70678m  699.9999m  274.8466n 
 -548.60678m  699.9999m  274.6961n 
 -548.50678m  699.9999m  274.5457n 
 -548.40678m  699.9999m  274.3955n 
 -548.30678m  699.9999m  274.2453n 
 -548.20678m  699.9999m  274.0952n 
 -548.10678m  699.9999m  273.9453n 
 -548.00678m  699.9999m  273.7955n 
 -547.90678m  699.9999m  273.6457n 
 -547.80678m  699.9999m  273.4961n 
 -547.70678m  699.9999m  273.3466n 
 -547.60678m  699.9999m  273.1972n 
 -547.50678m  699.9999m  273.0479n 
 -547.40678m  699.9999m  272.8987n 
 -547.30678m  699.9999m  272.7497n 
 -547.20678m  699.9999m  272.6007n 
 -547.10678m  699.9999m  272.4518n 
 -547.00678m  699.9999m  272.3031n 
 -546.90678m  699.9999m  272.1544n 
 -546.80678m  699.9999m  272.0059n 
 -546.70678m  699.9999m  271.8575n 
 -546.60678m  699.9999m  271.7091n 
 -546.50678m  699.9999m  271.5609n 
 -546.40678m  699.9999m  271.4128n 
 -546.30678m  699.9999m  271.2648n 
 -546.20678m  699.9999m  271.1169n 
 -546.10678m  699.9999m  270.9692n 
 -546.00678m  699.9999m  270.8215n 
 -545.90678m  699.9999m  270.6739n 
 -545.80678m  699.9999m  270.5264n 
 -545.70678m  699.9999m  270.3791n 
 -545.60678m  699.9999m  270.2318n 
 -545.50678m  699.9999m  270.0847n 
 -545.40678m  699.9999m  269.9376n 
 -545.30678m  699.9999m  269.7907n 
 -545.20678m  699.9999m  269.6439n 
 -545.10678m  699.9999m  269.4972n 
 -545.00678m  699.9999m  269.3506n 
 -544.90678m  699.9999m  269.2040n 
 -544.80678m  699.9999m  269.0576n 
 -544.70678m  699.9999m  268.9113n 
 -544.60678m  699.9999m  268.7652n 
 -544.50678m  699.9999m  268.6191n 
 -544.40678m  699.9999m  268.4731n 
 -544.30678m  699.9999m  268.3272n 
 -544.20678m  699.9999m  268.1814n 
 -544.10678m  699.9999m  268.0358n 
 -544.00678m  699.9999m  267.8902n 
 -543.90678m  699.9999m  267.7448n 
 -543.80678m  699.9999m  267.5994n 
 -543.70678m  699.9999m  267.4542n 
 -543.60678m  699.9999m  267.3090n 
 -543.50678m  699.9999m  267.1640n 
 -543.40678m  699.9999m  267.0190n 
 -543.30678m  699.9999m  266.8742n 
 -543.20678m  699.9999m  266.7295n 
 -543.10678m  699.9999m  266.5849n 
 -543.00678m  699.9999m  266.4403n 
 -542.90678m  699.9999m  266.2959n 
 -542.80678m  699.9999m  266.1516n 
 -542.70678m  699.9999m  266.0074n 
 -542.60678m  699.9999m  265.8633n 
 -542.50678m  699.9999m  265.7193n 
 -542.40678m  699.9999m  265.5754n 
 -542.30678m  699.9999m  265.4316n 
 -542.20678m  699.9999m  265.2879n 
 -542.10678m  699.9999m  265.1443n 
 -542.00678m  699.9999m  265.0008n 
 -541.90678m  699.9999m  264.8574n 
 -541.80678m  699.9999m  264.7142n 
 -541.70678m  699.9999m  264.5710n 
 -541.60678m  699.9999m  264.4279n 
 -541.50678m  699.9999m  264.2849n 
 -541.40678m  699.9999m  264.1421n 
 -541.30678m  699.9999m  263.9993n 
 -541.20678m  699.9999m  263.8566n 
 -541.10678m  699.9999m  263.7141n 
 -541.00678m  699.9999m  263.5716n 
 -540.90678m  699.9999m  263.4292n 
 -540.80678m  699.9999m  263.2870n 
 -540.70678m  699.9999m  263.1448n 
 -540.60678m  699.9999m  263.0028n 
 -540.50678m  699.9999m  262.8608n 
 -540.40678m  699.9999m  262.7189n 
 -540.30678m  699.9999m  262.5772n 
 -540.20678m  699.9999m  262.4355n 
 -540.10678m  699.9999m  262.2940n 
 -540.00678m  699.9999m  262.1525n 
 -539.90678m  699.9999m  262.0112n 
 -539.80678m  699.9999m  261.8699n 
 -539.70678m  699.9999m  261.7288n 
 -539.60678m  699.9999m  261.5877n 
 -539.50678m  699.9999m  261.4468n 
 -539.40678m  699.9999m  261.3059n 
 -539.30678m  699.9999m  261.1652n 
 -539.20678m  699.9999m  261.0245n 
 -539.10678m  699.9999m  260.8840n 
 -539.00678m  699.9999m  260.7435n 
 -538.90678m  699.9999m  260.6032n 
 -538.80678m  699.9999m  260.4629n 
 -538.70678m  699.9999m  260.3228n 
 -538.60678m  699.9999m  260.1827n 
 -538.50678m  699.9999m  260.0428n 
 -538.40678m  699.9999m  259.9029n 
 -538.30678m  699.9999m  259.7632n 
 -538.20678m  699.9999m  259.6235n 
 -538.10678m  699.9999m  259.4840n 
 -538.00678m  699.9999m  259.3445n 
 -537.90678m  699.9999m  259.2052n 
 -537.80678m  699.9999m  259.0659n 
 -537.70678m  699.9999m  258.9268n 
 -537.60678m  699.9999m  258.7877n 
 -537.50678m  699.9999m  258.6487n 
 -537.40678m  699.9999m  258.5099n 
 -537.30678m  699.9999m  258.3711n 
 -537.20678m  699.9999m  258.2324n 
 -537.10678m  699.9999m  258.0939n 
 -537.00678m  699.9999m  257.9554n 
 -536.90678m  699.9999m  257.8170n 
 -536.80678m  699.9999m  257.6787n 
 -536.70678m  699.9999m  257.5406n 
 -536.60678m  699.9999m  257.4025n 
 -536.50678m  699.9999m  257.2645n 
 -536.40678m  699.9999m  257.1266n 
 -536.30678m  699.9999m  256.9888n 
 -536.20678m  699.9999m  256.8511n 
 -536.10678m  699.9999m  256.7135n 
 -536.00678m  699.9999m  256.5760n 
 -535.90678m  699.9999m  256.4386n 
 -535.80678m  699.9999m  256.3013n 
 -535.70678m  699.9999m  256.1641n 
 -535.60678m  699.9999m  256.0270n 
 -535.50678m  699.9999m  255.8900n 
 -535.40678m  699.9999m  255.7531n 
 -535.30678m  699.9999m  255.6162n 
 -535.20678m  699.9999m  255.4795n 
 -535.10678m  699.9999m  255.3429n 
 -535.00678m  699.9999m  255.2063n 
 -534.90678m  699.9999m  255.0699n 
 -534.80678m  699.9999m  254.9336n 
 -534.70678m  699.9999m  254.7973n 
 -534.60678m  699.9999m  254.6612n 
 -534.50678m  699.9999m  254.5251n 
 -534.40678m  699.9999m  254.3891n 
 -534.30678m  699.9999m  254.2533n 
 -534.20678m  699.9999m  254.1175n 
 -534.10678m  699.9999m  253.9818n 
 -534.00678m  699.9999m  253.8462n 
 -533.90678m  699.9999m  253.7108n 
 -533.80678m  699.9999m  253.5754n 
 -533.70678m  699.9999m  253.4401n 
 -533.60678m  699.9999m  253.3049n 
 -533.50678m  699.9999m  253.1698n 
 -533.40678m  699.9999m  253.0348n 
 -533.30678m  699.9999m  252.8998n 
 -533.20678m  699.9999m  252.7650n 
 -533.10678m  699.9999m  252.6303n 
 -533.00678m  699.9999m  252.4957n 
 -532.90678m  699.9999m  252.3611n 
 -532.80678m  699.9999m  252.2267n 
 -532.70678m  699.9999m  252.0923n 
 -532.60678m  699.9999m  251.9581n 
 -532.50678m  699.9999m  251.8239n 
 -532.40678m  699.9999m  251.6898n 
 -532.30678m  699.9999m  251.5558n 
 -532.20678m  699.9999m  251.4220n 
 -532.10678m  699.9999m  251.2882n 
 -532.00678m  699.9999m  251.1545n 
 -531.90678m  699.9999m  251.0209n 
 -531.80678m  699.9999m  250.8874n 
 -531.70678m  699.9999m  250.7539n 
 -531.60678m  699.9999m  250.6206n 
 -531.50678m  699.9999m  250.4874n 
 -531.40678m  699.9999m  250.3542n 
 -531.30678m  699.9999m  250.2212n 
 -531.20678m  699.9999m  250.0882n 
 -531.10678m  699.9999m  249.9554n 
 -531.00678m  699.9999m  249.8226n 
 -530.90678m  699.9999m  249.6899n 
 -530.80678m  699.9999m  249.5573n 
 -530.70678m  699.9999m  249.4248n 
 -530.60678m  699.9999m  249.2924n 
 -530.50678m  699.9999m  249.1601n 
 -530.40678m  699.9999m  249.0279n 
 -530.30678m  699.9999m  248.8958n 
 -530.20678m  699.9999m  248.7637n 
 -530.10678m  699.9999m  248.6318n 
 -530.00678m  699.9999m  248.4999n 
 -529.90678m  699.9999m  248.3682n 
 -529.80678m  699.9999m  248.2365n 
 -529.70678m  699.9999m  248.1049n 
 -529.60678m  699.9999m  247.9734n 
 -529.50678m  699.9999m  247.8421n 
 -529.40678m  699.9999m  247.7107n 
 -529.30678m  699.9999m  247.5795n 
 -529.20678m  699.9999m  247.4484n 
 -529.10678m  699.9999m  247.3174n 
 -529.00678m  699.9999m  247.1864n 
 -528.90678m  699.9999m  247.0556n 
 -528.80678m  699.9999m  246.9248n 
 -528.70678m  699.9999m  246.7941n 
 -528.60678m  699.9999m  246.6636n 
 -528.50678m  699.9999m  246.5331n 
 -528.40678m  699.9999m  246.4027n 
 -528.30678m  699.9999m  246.2724n 
 -528.20678m  699.9999m  246.1421n 
 -528.10678m  699.9999m  246.0120n 
 -528.00678m  699.9999m  245.8820n 
 -527.90678m  699.9999m  245.7520n 
 -527.80678m  699.9999m  245.6221n 
 -527.70678m  699.9999m  245.4924n 
 -527.60678m  699.9999m  245.3627n 
 -527.50678m  699.9999m  245.2331n 
 -527.40678m  699.9999m  245.1036n 
 -527.30678m  699.9999m  244.9742n 
 -527.20678m  699.9999m  244.8448n 
 -527.10678m  699.9999m  244.7156n 
 -527.00678m  699.9999m  244.5865n 
 -526.90678m  699.9999m  244.4574n 
 -526.80678m  699.9999m  244.3284n 
 -526.70678m  699.9999m  244.1995n 
 -526.60678m  699.9999m  244.0707n 
 -526.50678m  699.9999m  243.9420n 
 -526.40678m  699.9999m  243.8134n 
 -526.30678m  699.9999m  243.6849n 
 -526.20678m  699.9999m  243.5564n 
 -526.10678m  699.9999m  243.4281n 
 -526.00678m  699.9999m  243.2998n 
 -525.90678m  699.9999m  243.1716n 
 -525.80678m  699.9999m  243.0435n 
 -525.70678m  699.9999m  242.9155n 
 -525.60678m  699.9999m  242.7876n 
 -525.50678m  699.9999m  242.6598n 
 -525.40678m  699.9999m  242.5321n 
 -525.30678m  699.9999m  242.4044n 
 -525.20678m  699.9999m  242.2768n 
 -525.10678m  699.9999m  242.1494n 
 -525.00678m  699.9999m  242.0220n 
 -524.90678m  699.9999m  241.8947n 
 -524.80678m  699.9999m  241.7674n 
 -524.70678m  699.9999m  241.6403n 
 -524.60678m  699.9999m  241.5133n 
 -524.50678m  699.9999m  241.3863n 
 -524.40678m  699.9999m  241.2594n 
 -524.30678m  699.9999m  241.1326n 
 -524.20678m  699.9999m  241.0059n 
 -524.10678m  699.9999m  240.8793n 
 -524.00678m  699.9999m  240.7528n 
 -523.90678m  699.9999m  240.6264n 
 -523.80678m  699.9999m  240.5000n 
 -523.70678m  699.9999m  240.3737n 
 -523.60678m  699.9999m  240.2476n 
 -523.50678m  699.9999m  240.1215n 
 -523.40678m  699.9999m  239.9955n 
 -523.30678m  699.9999m  239.8695n 
 -523.20678m  699.9999m  239.7437n 
 -523.10678m  699.9999m  239.6179n 
 -523.00678m  699.9999m  239.4923n 
 -522.90678m  699.9999m  239.3667n 
 -522.80678m  699.9999m  239.2412n 
 -522.70678m  699.9999m  239.1158n 
 -522.60678m  699.9999m  238.9905n 
 -522.50678m  699.9999m  238.8652n 
 -522.40678m  699.9999m  238.7401n 
 -522.30678m  699.9999m  238.6150n 
 -522.20678m  699.9999m  238.4900n 
 -522.10678m  699.9999m  238.3651n 
 -522.00678m  699.9999m  238.2403n 
 -521.90678m  699.9999m  238.1155n 
 -521.80678m  699.9999m  237.9909n 
 -521.70678m  699.9999m  237.8663n 
 -521.60678m  699.9999m  237.7418n 
 -521.50678m  699.9999m  237.6174n 
 -521.40678m  699.9999m  237.4931n 
 -521.30678m  699.9999m  237.3689n 
 -521.20678m  699.9999m  237.2448n 
 -521.10678m  699.9999m  237.1207n 
 -521.00678m  699.9999m  236.9967n 
 -520.90678m  699.9999m  236.8728n 
 -520.80678m  699.9999m  236.7490n 
 -520.70678m  699.9999m  236.6253n 
 -520.60678m  699.9999m  236.5016n 
 -520.50678m  699.9999m  236.3781n 
 -520.40678m  699.9999m  236.2546n 
 -520.30678m  699.9999m  236.1312n 
 -520.20678m  699.9999m  236.0079n 
 -520.10678m  699.9999m  235.8847n 
 -520.00678m  699.9999m  235.7615n 
 -519.90678m  699.9999m  235.6385n 
 -519.80678m  699.9999m  235.5155n 
 -519.70678m  699.9999m  235.3926n 
 -519.60678m  699.9999m  235.2698n 
 -519.50678m  699.9999m  235.1471n 
 -519.40678m  699.9999m  235.0244n 
 -519.30678m  699.9999m  234.9019n 
 -519.20678m  699.9999m  234.7794n 
 -519.10678m  699.9999m  234.6570n 
 -519.00678m  699.9999m  234.5346n 
 -518.90678m  699.9999m  234.4124n 
 -518.80678m  699.9999m  234.2903n 
 -518.70678m  699.9999m  234.1682n 
 -518.60678m  699.9999m  234.0462n 
 -518.50678m  699.9999m  233.9243n 
 -518.40678m  699.9999m  233.8025n 
 -518.30678m  699.9999m  233.6807n 
 -518.20678m  699.9999m  233.5591n 
 -518.10678m  699.9999m  233.4375n 
 -518.00678m  699.9999m  233.3160n 
 -517.90678m  699.9999m  233.1945n 
 -517.80678m  699.9999m  233.0732n 
 -517.70678m  699.9999m  232.9520n 
 -517.60678m  699.9999m  232.8308n 
 -517.50678m  699.9999m  232.7097n 
 -517.40678m  699.9999m  232.5887n 
 -517.30678m  699.9999m  232.4677n 
 -517.20678m  699.9999m  232.3469n 
 -517.10678m  699.9999m  232.2261n 
 -517.00678m  699.9999m  232.1054n 
 -516.90678m  699.9999m  231.9848n 
 -516.80678m  699.9999m  231.8643n 
 -516.70678m  699.9999m  231.7438n 
 -516.60678m  699.9999m  231.6235n 
 -516.50678m  699.9999m  231.5032n 
 -516.40678m  699.9999m  231.3830n 
 -516.30678m  699.9999m  231.2628n 
 -516.20678m  699.9999m  231.1428n 
 -516.10678m  699.9999m  231.0228n 
 -516.00678m  699.9999m  230.9029n 
 -515.90678m  699.9999m  230.7831n 
 -515.80678m  699.9999m  230.6634n 
 -515.70678m  699.9999m  230.5437n 
 -515.60678m  699.9999m  230.4242n 
 -515.50678m  699.9999m  230.3047n 
 -515.40678m  699.9999m  230.1853n 
 -515.30678m  699.9999m  230.0659n 
 -515.20678m  699.9999m  229.9467n 
 -515.10678m  699.9999m  229.8275n 
 -515.00678m  699.9999m  229.7084n 
 -514.90678m  699.9999m  229.5894n 
 -514.80678m  699.9999m  229.4704n 
 -514.70678m  699.9999m  229.3516n 
 -514.60678m  699.9999m  229.2328n 
 -514.50678m  699.9999m  229.1141n 
 -514.40678m  699.9999m  228.9955n 
 -514.30678m  699.9999m  228.8769n 
 -514.20678m  699.9999m  228.7585n 
 -514.10678m  699.9999m  228.6401n 
 -514.00678m  699.9999m  228.5218n 
 -513.90678m  699.9999m  228.4035n 
 -513.80678m  699.9999m  228.2854n 
 -513.70678m  699.9999m  228.1673n 
 -513.60678m  699.9999m  228.0493n 
 -513.50678m  699.9999m  227.9314n 
 -513.40678m  699.9999m  227.8136n 
 -513.30678m  699.9999m  227.6958n 
 -513.20678m  699.9999m  227.5781n 
 -513.10678m  699.9999m  227.4605n 
 -513.00678m  699.9999m  227.3430n 
 -512.90678m  699.9999m  227.2255n 
 -512.80678m  699.9999m  227.1081n 
 -512.70678m  699.9999m  226.9908n 
 -512.60678m  699.9999m  226.8736n 
 -512.50678m  699.9999m  226.7565n 
 -512.40678m  699.9999m  226.6394n 
 -512.30678m  699.9999m  226.5224n 
 -512.20678m  699.9999m  226.4055n 
 -512.10678m  699.9999m  226.2887n 
 -512.00678m  699.9999m  226.1719n 
 -511.90678m  699.9999m  226.0552n 
 -511.80678m  699.9999m  225.9386n 
 -511.70678m  699.9999m  225.8221n 
 -511.60678m  699.9999m  225.7056n 
 -511.50678m  699.9999m  225.5893n 
 -511.40678m  699.9999m  225.4730n 
 -511.30678m  699.9999m  225.3568n 
 -511.20678m  699.9999m  225.2406n 
 -511.10678m  699.9999m  225.1245n 
 -511.00678m  699.9999m  225.0085n 
 -510.90678m  699.9999m  224.8926n 
 -510.80678m  699.9999m  224.7768n 
 -510.70678m  699.9999m  224.6610n 
 -510.60678m  699.9999m  224.5453n 
 -510.50678m  699.9999m  224.4297n 
 -510.40678m  699.9999m  224.3142n 
 -510.30678m  699.9999m  224.1987n 
 -510.20678m  699.9999m  224.0833n 
 -510.10678m  699.9999m  223.9680n 
 -510.00678m  699.9999m  223.8528n 
 -509.90678m  699.9999m  223.7376n 
 -509.80678m  699.9999m  223.6225n 
 -509.70678m  699.9999m  223.5075n 
 -509.60678m  699.9999m  223.3926n 
 -509.50678m  699.9999m  223.2777n 
 -509.40678m  699.9999m  223.1629n 
 -509.30678m  699.9999m  223.0482n 
 -509.20678m  699.9999m  222.9336n 
 -509.10678m  699.9999m  222.8190n 
 -509.00678m  699.9999m  222.7045n 
 -508.90678m  699.9999m  222.5901n 
 -508.80678m  699.9999m  222.4757n 
 -508.70678m  699.9999m  222.3615n 
 -508.60678m  699.9999m  222.2473n 
 -508.50678m  699.9999m  222.1332n 
 -508.40678m  699.9999m  222.0191n 
 -508.30678m  699.9999m  221.9052n 
 -508.20678m  699.9999m  221.7913n 
 -508.10678m  699.9999m  221.6774n 
 -508.00678m  699.9999m  221.5637n 
 -507.90678m  699.9999m  221.4500n 
 -507.80678m  699.9999m  221.3364n 
 -507.70678m  699.9999m  221.2229n 
 -507.60678m  699.9999m  221.1095n 
 -507.50678m  699.9999m  220.9961n 
 -507.40678m  699.9999m  220.8828n 
 -507.30678m  699.9999m  220.7695n 
 -507.20678m  699.9999m  220.6564n 
 -507.10678m  699.9999m  220.5433n 
 -507.00678m  699.9999m  220.4303n 
 -506.90678m  699.9999m  220.3173n 
 -506.80678m  699.9999m  220.2045n 
 -506.70678m  699.9999m  220.0917n 
 -506.60678m  699.9999m  219.9790n 
 -506.50678m  699.9999m  219.8663n 
 -506.40678m  699.9999m  219.7538n 
 -506.30678m  699.9999m  219.6412n 
 -506.20678m  699.9999m  219.5288n 
 -506.10678m  699.9999m  219.4165n 
 -506.00678m  699.9999m  219.3042n 
 -505.90678m  699.9999m  219.1920n 
 -505.80678m  699.9999m  219.0798n 
 -505.70678m  699.9999m  218.9678n 
 -505.60678m  699.9999m  218.8558n 
 -505.50678m  699.9999m  218.7439n 
 -505.40678m  699.9999m  218.6320n 
 -505.30678m  699.9999m  218.5202n 
 -505.20678m  699.9999m  218.4085n 
 -505.10678m  699.9999m  218.2969n 
 -505.00678m  699.9999m  218.1853n 
 -504.90678m  699.9999m  218.0738n 
 -504.80678m  699.9999m  217.9624n 
 -504.70678m  699.9999m  217.8511n 
 -504.60678m  699.9999m  217.7398n 
 -504.50678m  699.9999m  217.6286n 
 -504.40678m  699.9999m  217.5175n 
 -504.30678m  699.9999m  217.4064n 
 -504.20678m  699.9999m  217.2954n 
 -504.10678m  699.9999m  217.1845n 
 -504.00678m  699.9999m  217.0736n 
 -503.90678m  699.9999m  216.9629n 
 -503.80678m  699.9999m  216.8522n 
 -503.70678m  699.9999m  216.7415n 
 -503.60678m  699.9999m  216.6310n 
 -503.50678m  699.9999m  216.5205n 
 -503.40678m  699.9999m  216.4100n 
 -503.30678m  699.9999m  216.2997n 
 -503.20678m  699.9999m  216.1894n 
 -503.10678m  699.9999m  216.0792n 
 -503.00678m  699.9999m  215.9691n 
 -502.90678m  699.9999m  215.8590n 
 -502.80678m  699.9999m  215.7490n 
 -502.70678m  699.9999m  215.6391n 
 -502.60678m  699.9999m  215.5292n 
 -502.50678m  699.9999m  215.4194n 
 -502.40678m  699.9999m  215.3097n 
 -502.30678m  699.9999m  215.2000n 
 -502.20678m  699.9999m  215.0905n 
 -502.10678m  699.9999m  214.9809n 
 -502.00678m  699.9999m  214.8715n 
 -501.90678m  699.9999m  214.7621n 
 -501.80678m  699.9999m  214.6528n 
 -501.70678m  699.9999m  214.5436n 
 -501.60678m  699.9999m  214.4344n 
 -501.50678m  699.9999m  214.3254n 
 -501.40678m  699.9999m  214.2163n 
 -501.30678m  699.9999m  214.1074n 
 -501.20678m  699.9999m  213.9985n 
 -501.10678m  699.9999m  213.8897n 
 -501.00678m  699.9999m  213.7809n 
 -500.90678m  699.9999m  213.6723n 
 -500.80678m  699.9999m  213.5636n 
 -500.70678m  699.9999m  213.4551n 
 -500.60678m  699.9999m  213.3466n 
 -500.50678m  699.9999m  213.2382n 
 -500.40678m  699.9999m  213.1299n 
 -500.30678m  699.9999m  213.0216n 
 -500.20678m  699.9999m  212.9134n 
 -500.10678m  699.9999m  212.8053n 
 -500.00678m  699.9999m  212.6973n 
 -499.90678m  699.9999m  212.5893n 
 -499.80678m  699.9999m  212.4814n 
 -499.70678m  699.9999m  212.3735n 
 -499.60678m  699.9999m  212.2657n 
 -499.50678m  699.9999m  212.1580n 
 -499.40678m  699.9999m  212.0503n 
 -499.30678m  699.9999m  211.9428n 
 -499.20678m  699.9999m  211.8353n 
 -499.10678m  699.9999m  211.7278n 
 -499.00678m  699.9999m  211.6204n 
 -498.90678m  699.9999m  211.5131n 
 -498.80678m  699.9999m  211.4059n 
 -498.70678m  699.9999m  211.2987n 
 -498.60678m  699.9999m  211.1916n 
 -498.50678m  699.9999m  211.0846n 
 -498.40678m  699.9999m  210.9776n 
 -498.30678m  699.9999m  210.8707n 
 -498.20678m  699.9999m  210.7638n 
 -498.10678m  699.9999m  210.6571n 
 -498.00678m  699.9999m  210.5504n 
 -497.90678m  699.9999m  210.4437n 
 -497.80678m  699.9999m  210.3372n 
 -497.70678m  699.9999m  210.2307n 
 -497.60678m  699.9999m  210.1242n 
 -497.50678m  699.9999m  210.0179n 
 -497.40678m  699.9999m  209.9116n 
 -497.30678m  699.9999m  209.8053n 
 -497.20678m  699.9999m  209.6992n 
 -497.10678m  699.9999m  209.5931n 
 -497.00678m  699.9999m  209.4870n 
 -496.90678m  699.9999m  209.3811n 
 -496.80678m  699.9999m  209.2751n 
 -496.70678m  699.9999m  209.1693n 
 -496.60678m  699.9999m  209.0635n 
 -496.50678m  699.9999m  208.9578n 
 -496.40678m  699.9999m  208.8522n 
 -496.30678m  699.9999m  208.7466n 
 -496.20678m  699.9999m  208.6411n 
 -496.10678m  699.9999m  208.5357n 
 -496.00678m  699.9999m  208.4303n 
 -495.90678m  699.9999m  208.3250n 
 -495.80678m  699.9999m  208.2198n 
 -495.70678m  699.9999m  208.1146n 
 -495.60678m  699.9999m  208.0095n 
 -495.50678m  699.9999m  207.9044n 
 -495.40678m  699.9999m  207.7995n 
 -495.30678m  699.9999m  207.6945n 
 -495.20678m  699.9999m  207.5897n 
 -495.10678m  699.9999m  207.4849n 
 -495.00678m  699.9999m  207.3802n 
 -494.90678m  699.9999m  207.2755n 
 -494.80678m  699.9999m  207.1709n 
 -494.70678m  699.9999m  207.0664n 
 -494.60678m  699.9999m  206.9620n 
 -494.50678m  699.9999m  206.8576n 
 -494.40678m  699.9999m  206.7532n 
 -494.30678m  699.9999m  206.6490n 
 -494.20678m  699.9999m  206.5448n 
 -494.10678m  699.9999m  206.4407n 
 -494.00678m  699.9999m  206.3366n 
 -493.90678m  699.9999m  206.2326n 
 -493.80678m  699.9999m  206.1286n 
 -493.70678m  699.9999m  206.0248n 
 -493.60678m  699.9999m  205.9210n 
 -493.50678m  699.9999m  205.8172n 
 -493.40678m  699.9999m  205.7135n 
 -493.30678m  699.9999m  205.6099n 
 -493.20678m  699.9999m  205.5063n 
 -493.10678m  699.9999m  205.4029n 
 -493.00678m  699.9999m  205.2994n 
 -492.90678m  699.9999m  205.1961n 
 -492.80678m  699.9999m  205.0928n 
 -492.70678m  699.9999m  204.9895n 
 -492.60678m  699.9999m  204.8864n 
 -492.50678m  699.9999m  204.7833n 
 -492.40678m  699.9999m  204.6802n 
 -492.30678m  699.9999m  204.5772n 
 -492.20678m  699.9999m  204.4743n 
 -492.10678m  699.9999m  204.3715n 
 -492.00678m  699.9999m  204.2687n 
 -491.90678m  699.9999m  204.1660n 
 -491.80678m  699.9999m  204.0633n 
 -491.70678m  699.9999m  203.9607n 
 -491.60678m  699.9999m  203.8582n 
 -491.50678m  699.9999m  203.7557n 
 -491.40678m  699.9999m  203.6533n 
 -491.30678m  699.9999m  203.5509n 
 -491.20678m  699.9999m  203.4486n 
 -491.10678m  699.9999m  203.3464n 
 -491.00678m  699.9999m  203.2443n 
 -490.90678m  699.9999m  203.1422n 
 -490.80678m  699.9999m  203.0401n 
 -490.70678m  699.9999m  202.9382n 
 -490.60678m  699.9999m  202.8363n 
 -490.50678m  699.9999m  202.7344n 
 -490.40678m  699.9999m  202.6326n 
 -490.30678m  699.9999m  202.5309n 
 -490.20678m  699.9999m  202.4293n 
 -490.10678m  699.9999m  202.3277n 
 -490.00678m  699.9999m  202.2261n 
 -489.90678m  699.9999m  202.1246n 
 -489.80678m  699.9999m  202.0232n 
 -489.70678m  699.9999m  201.9219n 
[...]
  665.39322m  565.0991n  699.9999m 
  665.49322m  565.4932n  699.9999m 
  665.59322m  565.8876n  699.9999m 
  665.69322m  566.2824n  699.9999m 
  665.79322m  566.6775n  699.9999m 
  665.89322m  567.0730n  699.9999m 
  665.99322m  567.4689n  699.9999m 
  666.09322m  567.8651n  699.9999m 
  666.19322m  568.2616n  699.9999m 
  666.29322m  568.6586n  699.9999m 
  666.39322m  569.0559n  699.9999m 
  666.49322m  569.4535n  699.9999m 
  666.59322m  569.8515n  699.9999m 
  666.69322m  570.2499n  699.9999m 
  666.79322m  570.6487n  699.9999m 
  666.89322m  571.0478n  699.9999m 
  666.99322m  571.4472n  699.9999m 
  667.09322m  571.8471n  699.9999m 
  667.19322m  572.2473n  699.9999m 
  667.29322m  572.6478n  699.9999m 
  667.39322m  573.0487n  699.9999m 
  667.49322m  573.4500n  699.9999m 
  667.59322m  573.8517n  699.9999m 
  667.69322m  574.2537n  699.9999m 
  667.79322m  574.6561n  699.9999m 
  667.89322m  575.0588n  699.9999m 
  667.99322m  575.4619n  699.9999m 
  668.09322m  575.8654n  699.9999m 
  668.19322m  576.2693n  699.9999m 
  668.29322m  576.6735n  699.9999m 
  668.39322m  577.0781n  699.9999m 
  668.49322m  577.4831n  699.9999m 
  668.59322m  577.8884n  699.9999m 
  668.69322m  578.2941n  699.9999m 
  668.79322m  578.7001n  699.9999m 
  668.89322m  579.1066n  699.9999m 
  668.99322m  579.5134n  699.9999m 
  669.09322m  579.9206n  699.9999m 
  669.19322m  580.3281n  699.9999m 
  669.29322m  580.7360n  699.9999m 
  669.39322m  581.1443n  699.9999m 
  669.49322m  581.5530n  699.9999m 
  669.59322m  581.9620n  699.9999m 
  669.69322m  582.3715n  699.9999m 
  669.79322m  582.7812n  699.9999m 
  669.89322m  583.1914n  699.9999m 
  669.99322m  583.6019n  699.9999m 
  670.09322m  584.0129n  699.9999m 
  670.19322m  584.4241n  699.9999m 
  670.29322m  584.8358n  699.9999m 
  670.39322m  585.2478n  699.9999m 
  670.49322m  585.6603n  699.9999m 
  670.59322m  586.0731n  699.9999m 
  670.69322m  586.4862n  699.9999m 
  670.79322m  586.8998n  699.9999m 
  670.89322m  587.3137n  699.9999m 
  670.99322m  587.7280n  699.9999m 
  671.09322m  588.1427n  699.9999m 
  671.19322m  588.5577n  699.9999m 
  671.29322m  588.9732n  699.9999m 
  671.39322m  589.3890n  699.9999m 
  671.49322m  589.8052n  699.9999m 
  671.59322m  590.2218n  699.9999m 
  671.69322m  590.6388n  699.9999m 
  671.79322m  591.0561n  699.9999m 
  671.89322m  591.4738n  699.9999m 
  671.99322m  591.8919n  699.9999m 
  672.09322m  592.3104n  699.9999m 
  672.19322m  592.7293n  699.9999m 
  672.29322m  593.1486n  699.9999m 
  672.39322m  593.5682n  699.9999m 
  672.49322m  593.9883n  699.9999m 
  672.59322m  594.4087n  699.9999m 
  672.69322m  594.8295n  699.9999m 
  672.79322m  595.2507n  699.9999m 
  672.89322m  595.6722n  699.9999m 
  672.99322m  596.0942n  699.9999m 
  673.09322m  596.5165n  699.9999m 
  673.19322m  596.9393n  699.9999m 
  673.29322m  597.3624n  699.9999m 
  673.39322m  597.7859n  699.9999m 
  673.49322m  598.2098n  699.9999m 
  673.59322m  598.6341n  699.9999m 
  673.69322m  599.0587n  699.9999m 
  673.79322m  599.4838n  699.9999m 
  673.89322m  599.9093n  699.9999m 
  673.99322m  600.3351n  699.9999m 
  674.09322m  600.7613n  699.9999m 
  674.19322m  601.1880n  699.9999m 
  674.29322m  601.6150n  699.9999m 
  674.39322m  602.0424n  699.9999m 
  674.49322m  602.4702n  699.9999m 
  674.59322m  602.8984n  699.9999m 
  674.69322m  603.3270n  699.9999m 
  674.79322m  603.7560n  699.9999m 
  674.89322m  604.1854n  699.9999m 
  674.99322m  604.6151n  699.9999m 
  675.09322m  605.0453n  699.9999m 
  675.19322m  605.4759n  699.9999m 
  675.29322m  605.9068n  699.9999m 
  675.39322m  606.3382n  699.9999m 
  675.49322m  606.7699n  699.9999m 
  675.59322m  607.2021n  699.9999m 
  675.69322m  607.6346n  699.9999m 
  675.79322m  608.0676n  699.9999m 
  675.89322m  608.5009n  699.9999m 
  675.99322m  608.9347n  699.9999m 
  676.09322m  609.3688n  699.9999m 
  676.19322m  609.8034n  699.9999m 
  676.29322m  610.2383n  699.9999m 
  676.39322m  610.6737n  699.9999m 
  676.49322m  611.1094n  699.9999m 
  676.59322m  611.5455n  699.9999m 
  676.69322m  611.9821n  699.9999m 
  676.79322m  612.4190n  699.9999m 
  676.89322m  612.8564n  699.9999m 
  676.99322m  613.2941n  699.9999m 
  677.09322m  613.7323n  699.9999m 
  677.19322m  614.1709n  699.9999m 
  677.29322m  614.6098n  699.9999m 
  677.39322m  615.0492n  699.9999m 
  677.49322m  615.4890n  699.9999m 
  677.59322m  615.9292n  699.9999m 
  677.69322m  616.3698n  699.9999m 
  677.79322m  616.8107n  699.9999m 
  677.89322m  617.2522n  699.9999m 
  677.99322m  617.6940n  699.9999m 
  678.09322m  618.1362n  699.9999m 
  678.19322m  618.5788n  699.9999m 
  678.29322m  619.0218n  699.9999m 
  678.39322m  619.4653n  699.9999m 
  678.49322m  619.9091n  699.9999m 
  678.59322m  620.3534n  699.9999m 
  678.69322m  620.7981n  699.9999m 
  678.79322m  621.2431n  699.9999m 
  678.89322m  621.6886n  699.9999m 
  678.99322m  622.1345n  699.9999m 
  679.09322m  622.5809n  699.9999m 
  679.19322m  623.0276n  699.9999m 
  679.29322m  623.4747n  699.9999m 
  679.39322m  623.9223n  699.9999m 
  679.49322m  624.3703n  699.9999m 
  679.59322m  624.8186n  699.9999m 
  679.69322m  625.2674n  699.9999m 
  679.79322m  625.7167n  699.9999m 
  679.89322m  626.1663n  699.9999m 
  679.99322m  626.6163n  699.9999m 
  680.09322m  627.0668n  699.9999m 
  680.19322m  627.5177n  699.9999m 
  680.29322m  627.9690n  699.9999m 
  680.39322m  628.4207n  699.9999m 
  680.49322m  628.8728n  699.9999m 
  680.59322m  629.3254n  699.9999m 
  680.69322m  629.7783n  699.9999m 
  680.79322m  630.2317n  699.9999m 
  680.89322m  630.6855n  699.9999m 
  680.99322m  631.1398n  699.9999m 
  681.09322m  631.5944n  699.9999m 
  681.19322m  632.0495n  699.9999m 
  681.29322m  632.5050n  699.9999m 
  681.39322m  632.9609n  699.9999m 
  681.49322m  633.4172n  699.9999m 
  681.59322m  633.8740n  699.9999m 
  681.69322m  634.3312n  699.9999m 
  681.79322m  634.7888n  699.9999m 
  681.89322m  635.2468n  699.9999m 
  681.99322m  635.7053n  699.9999m 
  682.09322m  636.1641n  699.9999m 
  682.19322m  636.6234n  699.9999m 
  682.29322m  637.0832n  699.9999m 
  682.39322m  637.5433n  699.9999m 
  682.49322m  638.0039n  699.9999m 
  682.59322m  638.4649n  699.9999m 
  682.69322m  638.9264n  699.9999m 
  682.79322m  639.3882n  699.9999m 
  682.89322m  639.8505n  699.9999m 
  682.99322m  640.3133n  699.9999m 
  683.09322m  640.7764n  699.9999m 
  683.19322m  641.2400n  699.9999m 
  683.29322m  641.7040n  699.9999m 
  683.39322m  642.1685n  699.9999m 
  683.49322m  642.6334n  699.9999m 
  683.59322m  643.0987n  699.9999m 
  683.69322m  643.5644n  699.9999m 
  683.79322m  644.0306n  699.9999m 
  683.89322m  644.4972n  699.9999m 
  683.99322m  644.9643n  699.9999m 
  684.09322m  645.4317n  699.9999m 
  684.19322m  645.8997n  699.9999m 
  684.29322m  646.3680n  699.9999m 
  684.39322m  646.8368n  699.9999m 
  684.49322m  647.3060n  699.9999m 
  684.59322m  647.7757n  699.9999m 
  684.69322m  648.2458n  699.9999m 
  684.79322m  648.7163n  699.9999m 
  684.89322m  649.1873n  699.9999m 
  684.99322m  649.6587n  699.9999m 
  685.09322m  650.1305n  699.9999m 
  685.19322m  650.6028n  699.9999m 
  685.29322m  651.0755n  699.9999m 
  685.39322m  651.5487n  699.9999m 
  685.49322m  652.0223n  699.9999m 
  685.59322m  652.4964n  699.9999m 
  685.69322m  652.9708n  699.9999m 
  685.79322m  653.4458n  699.9999m 
  685.89322m  653.9212n  699.9999m 
  685.99322m  654.3970n  699.9999m 
  686.09322m  654.8732n  699.9999m 
  686.19322m  655.3499n  699.9999m 
  686.29322m  655.8271n  699.9999m 
  686.39322m  656.3047n  699.9999m 
  686.49322m  656.7827n  699.9999m 
  686.59322m  657.2612n  699.9999m 
  686.69322m  657.7401n  699.9999m 
  686.79322m  658.2195n  699.9999m 
  686.89322m  658.6993n  699.9999m 
  686.99322m  659.1796n  699.9999m 
  687.09322m  659.6603n  699.9999m 
  687.19322m  660.1415n  699.9999m 
  687.29322m  660.6231n  699.9999m 
  687.39322m  661.1052n  699.9999m 
  687.49322m  661.5877n  699.9999m 
  687.59322m  662.0707n  699.9999m 
  687.69322m  662.5541n  699.9999m 
  687.79322m  663.0380n  699.9999m 
  687.89322m  663.5223n  699.9999m 
  687.99322m  664.0071n  699.9999m 
  688.09322m  664.4923n  699.9999m 
  688.19322m  664.9780n  699.9999m 
  688.29322m  665.4641n  699.9999m 
  688.39322m  665.9507n  699.9999m 
  688.49322m  666.4377n  699.9999m 
  688.59322m  666.9252n  699.9999m 
  688.69322m  667.4132n  699.9999m 
  688.79322m  667.9016n  699.9999m 
  688.89322m  668.3905n  699.9999m 
  688.99322m  668.8798n  699.9999m 
  689.09322m  669.3696n  699.9999m 
  689.19322m  669.8598n  699.9999m 
  689.29322m  670.3505n  699.9999m 
  689.39322m  670.8417n  699.9999m 
  689.49322m  671.3333n  699.9999m 
  689.59322m  671.8254n  699.9999m 
  689.69322m  672.3179n  699.9999m 
  689.79322m  672.8109n  699.9999m 
  689.89322m  673.3044n  699.9999m 
  689.99322m  673.7983n  699.9999m 
  690.09322m  674.2927n  699.9999m 
  690.19322m  674.7876n  699.9999m 
  690.29322m  675.2829n  699.9999m 
  690.39322m  675.7786n  699.9999m 
  690.49322m  676.2749n  699.9999m 
  690.59322m  676.7716n  699.9999m 
  690.69322m  677.2688n  699.9999m 
  690.79322m  677.7664n  699.9999m 
  690.89322m  678.2645n  699.9999m 
  690.99322m  678.7631n  699.9999m 
  691.09322m  679.2621n  699.9999m 
  691.19322m  679.7616n  699.9999m 
  691.29322m  680.2616n  699.9999m 
  691.39322m  680.7620n  699.9999m 
  691.49322m  681.2630n  699.9999m 
  691.59322m  681.7643n  699.9999m 
  691.69322m  682.2662n  699.9999m 
  691.79322m  682.7685n  699.9999m 
  691.89322m  683.2713n  699.9999m 
  691.99322m  683.7746n  699.9999m 
  692.09322m  684.2783n  699.9999m 
  692.19322m  684.7825n  699.9999m 
  692.29322m  685.2872n  699.9999m 
  692.39322m  685.7924n  699.9999m 
  692.49322m  686.2980n  699.9999m 
  692.59322m  686.8041n  699.9999m 
  692.69322m  687.3107n  699.9999m 
  692.79322m  687.8178n  699.9999m 
  692.89322m  688.3253n  699.9999m 
  692.99322m  688.8333n  699.9999m 
  693.09322m  689.3418n  699.9999m 
  693.19322m  689.8508n  699.9999m 
  693.29322m  690.3602n  699.9999m 
  693.39322m  690.8702n  699.9999m 
  693.49322m  691.3806n  699.9999m 
  693.59322m  691.8915n  699.9999m 
  693.69322m  692.4028n  699.9999m 
  693.79322m  692.9147n  699.9999m 
  693.89322m  693.4270n  699.9999m 
  693.99322m  693.9398n  699.9999m 
  694.09322m  694.4531n  699.9999m 
  694.19322m  694.9669n  699.9999m 
  694.29322m  695.4812n  699.9999m 
  694.39322m  695.9959n  699.9999m 
  694.49322m  696.5111n  699.9999m 
  694.59322m  697.0268n  699.9999m 
  694.69322m  697.5430n  699.9999m 
  694.79322m  698.0597n  699.9999m 
  694.89322m  698.5769n  699.9999m 
  694.99322m  699.0946n  699.9999m 
  695.09322m  699.6127n  699.9999m 
  695.19322m  700.1313n  699.9999m 
  695.29322m  700.6505n  699.9999m 
  695.39322m  701.1701n  699.9999m 
  695.49322m  701.6902n  699.9999m 
  695.59322m  702.2108n  699.9999m 
  695.69322m  702.7319n  699.9999m 
  695.79322m  703.2534n  699.9999m 
  695.89322m  703.7755n  699.9999m 
  695.99322m  704.2981n  699.9999m 
  696.09322m  704.8211n  699.9999m 
  696.19322m  705.3447n  699.9999m 
  696.29322m  705.8687n  699.9999m 
  696.39322m  706.3932n  699.9999m 
  696.49322m  706.9183n  699.9999m 
  696.59322m  707.4438n  699.9999m 
  696.69322m  707.9698n  699.9999m 
  696.79322m  708.4963n  699.9999m 
  696.89322m  709.0233n  699.9999m 
  696.99322m  709.5508n  699.9999m 
  697.09322m  710.0788n  699.9999m 
  697.19322m  710.6074n  699.9999m 
  697.29322m  711.1364n  699.9999m 
  697.39322m  711.6659n  699.9999m 
  697.49322m  712.1959n  699.9999m 
  697.59322m  712.7264n  699.9999m 
  697.69322m  713.2574n  699.9999m 
  697.79322m  713.7889n  699.9999m 
  697.89322m  714.3209n  699.9999m 
  697.99322m  714.8534n  699.9999m 
  698.09322m  715.3864n  699.9999m 
  698.19322m  715.9200n  699.9999m 
  698.29322m  716.4540n  699.9999m 
  698.39322m  716.9885n  699.9999m 
  698.49322m  717.5236n  699.9999m 
  698.59322m  718.0591n  699.9999m 
  698.69322m  718.5951n  699.9999m 
  698.79322m  719.1317n  699.9999m 
  698.89322m  719.6688n  699.9999m 
  698.99322m  720.2063n  699.9999m 
  699.09322m  720.7444n  699.9999m 
  699.19322m  721.2830n  699.9999m 
  699.29322m  721.8221n  699.9999m 
  699.39322m  722.3617n  699.9999m 
  699.49322m  722.9018n  699.9999m 
  699.59322m  723.4425n  699.9999m 
  699.69322m  723.9836n  699.9999m 
  699.79322m  724.5253n  699.9999m 
  699.89322m  725.0674n  699.9999m 
  699.99322m  725.6101n  699.9999m 
  700.09322m  726.1533n  699.9999m 
  700.19322m  726.6970n  699.9999m 
  700.29322m  727.2412n  699.9999m 
  700.39322m  727.7860n  699.9999m 
  700.49322m  728.3312n  699.9999m 
  700.59322m  728.8770n  699.9999m 
  700.69322m  729.4233n  699.9999m 
  700.79322m  729.9701n  699.9999m 
  700.89322m  730.5175n  699.9999m 
  700.99322m  731.0653n  699.9999m 
  701.09322m  731.6137n  699.9999m 
  701.19322m  732.1626n  699.9999m 
  701.29322m  732.7120n  699.9999m 
  701.39322m  733.2619n  699.9999m 
  701.49322m  733.8123n  699.9999m 
  701.59322m  734.3633n  699.9999m 
  701.69322m  734.9148n  699.9999m 
  701.79322m  735.4668n  699.9999m 
  701.89322m  736.0194n  699.9999m 
  701.99322m  736.5724n  699.9999m 
  702.09322m  737.1260n  699.9999m 
  702.19322m  737.6802n  699.9999m 
  702.29322m  738.2348n  699.9999m 
  702.39322m  738.7900n  699.9999m 
  702.49322m  739.3457n  699.9999m 
  702.59322m  739.9019n  699.9999m 
  702.69322m  740.4587n  699.9999m 
  702.79322m  741.0159n  699.9999m 
  702.89322m  741.5738n  699.9999m 
  702.99322m  742.1321n  699.9999m 
  703.09322m  742.6910n  699.9999m 
  703.19322m  743.2504n  699.9999m 
  703.29322m  743.8103n  699.9999m 
  703.39322m  744.3708n  699.9999m 
  703.49322m  744.9318n  699.9999m 
  703.59322m  745.4933n  699.9999m 
  703.69322m  746.0554n  699.9999m 
  703.79322m  746.6180n  699.9999m 
  703.89322m  747.1812n  699.9999m 
  703.99322m  747.7448n  699.9999m 
  704.09322m  748.3090n  699.9999m 
  704.19322m  748.8738n  699.9999m 
  704.29322m  749.4391n  699.9999m 
  704.39322m  750.0049n  699.9999m 
  704.49322m  750.5713n  699.9999m 
  704.59322m  751.1382n  699.9999m 
  704.69322m  751.7056n  699.9999m 
  704.79322m  752.2736n  699.9999m 
  704.89322m  752.8421n  699.9999m 
  704.99322m  753.4112n  699.9999m 
  705.09322m  753.9808n  699.9999m 
  705.19322m  754.5510n  699.9999m 
  705.29322m  755.1217n  699.9999m 
  705.39322m  755.6929n  699.9999m 
  705.49322m  756.2647n  699.9999m 
  705.59322m  756.8370n  699.9999m 
  705.69322m  757.4099n  699.9999m 
  705.79322m  757.9833n  699.9999m 
  705.89322m  758.5573n  699.9999m 
  705.99322m  759.1318n  699.9999m 
  706.09322m  759.7068n  699.9999m 
  706.19322m  760.2824n  699.9999m 
  706.29322m  760.8586n  699.9999m 
  706.39322m  761.4353n  699.9999m 
  706.49322m  762.0126n  699.9999m 
  706.59322m  762.5904n  699.9999m 
  706.69322m  763.1687n  699.9999m 
  706.79322m  763.7476n  699.9999m 
  706.89322m  764.3271n  699.9999m 
  706.99322m  764.9071n  699.9999m 
  707.09322m  765.4877n  699.9999m 
y
1****** HSPICE -- Q-2020.03-SP2-2 linux64 (Nov  1 2020) ******                  
 ******  
 .title ex1_1

 ****** operating point information tnom=  25.000 temp=  25.000 ******
 ****** operating point status is all       simulation time is     0.     
    node    =voltage      node    =voltage      node    =voltage

 +0:bl      = 700.0000m 0:blb     = 700.0000m 0:gl      = 369.3010m
 +0:gr      = 369.3010m 0:q       = 369.3010m 0:qb      = 369.3010m
 +0:u       =   0.      0:v1      = 522.2705m 0:v2      = 522.2705m
 +0:vdd     = 700.0000m 0:wl      =   0.      0:x       = 675.3233m


 **** voltage sources

 subckt                                   
 element  0:vdd      0:vu       0:vwl     
  volts    700.0000m    0.         0.     
  current -998.3327n    0.       305.0210f
  power    698.8329n    0.         0.     

     total voltage source power dissipation=  698.8329n       watts



 **** voltage-controlled voltage sources


 subckt                                              
 element  0:eli      0:eri      0:ev1      0:ev2     
  volts    369.3010m  369.3010m  522.2705m  522.2705m
  current   16.1796f   16.1796f    0.         0.     





 **** mosfets


 subckt                                                                    
 element  0:mp_pu1   0:mp_pu2   0:mn_pd1   0:mn_pd2   0:mn_ax1   0:mn_ax2  
 model    0:pmos_sra 0:pmos_sra 0:nmos_sra 0:nmos_sra 0:nmos_sra 0:nmos_sra
 region   Subth      Subth      Subth      Subth      Cutoff     Cutoff    
  id      -499.1663n -499.1663n  499.1662n  499.1662n  938.2454a  938.2454a
  ibs        0.         0.         0.         0.         0.         0.     
  ibd        0.         0.         0.         0.         0.         0.     
  vgs     -330.6990m -330.6990m  369.3010m  369.3010m -369.3010m -369.3010m
  vds     -330.6990m -330.6990m  369.3010m  369.3010m  330.6990m  330.6990m
  vbs        0.         0.         0.         0.       306.0223m  306.0223m
  vth     -334.7549m -334.7549m  408.4973m  408.4973m  408.7099m  408.7099m
  vdsat    -95.5225m  -95.5225m   79.1198m   79.1198m   70.6690m   70.6690m
  vod        4.0559m    4.0559m  -39.1962m  -39.1962m -778.0109m -778.0109m
  beta       1.6413m    1.6413m    2.1736m    2.1736m    2.1736m    2.1736m
  gam eff    0.         0.         0.         0.         0.         0.     
  gm        12.9906u   12.9906u   15.3997u   15.3997u  8.590e-21  8.590e-21
  gds      301.4597n  301.4597n  239.6259n  239.6259n  228.2567a  228.2567a
  gmb        4.7534p    4.7534p    5.0811p    5.0811p  1.342e-20  1.342e-20
  cdtot     10.1750a   10.1750a   10.2205a   10.2205a   10.2225a   10.2225a
  cgtot     31.2784a   31.2784a   26.1428a   26.1428a   20.4450a   20.4450a
  cstot     17.2863a   17.2863a   14.0661a   14.0661a   10.2225a   10.2225a
  cbtot      0.         0.         0.         0.         0.         0.     
  cgs       21.2138a   21.2138a   15.9421a   15.9421a   10.2225a   10.2225a
  cgd       10.0646a   10.0646a   10.2007a   10.2007a   10.2225a   10.2225a




          ***** job concluded
 ******  
 .title ex1_1

 ****** job statistics summary tnom=  25.000 temp=  25.000 ******
  
 ******  Machine Information  ******
 CPU:
 model name	: AMD EPYC 7713 64-Core Processor
 cpu MHz	: 2000.000
  
 OS:
 Linux version 3.10.0-1160.88.1.el7.x86_64 (mockbuild@kbuilder.bsys.centos.org) (gcc version 4.8.5 20150623 (Red Hat 4.8.5-44) (GCC) ) #1 SMP Tue Mar 7 15:41:52 UTC 2023


  ******  HSPICE Threads Information  ******

  Command Line Threads Count :     1
  Available CPU Count        :   256
  Actual Threads Count       :     1


  ******  Circuit Statistics  ******
  # nodes       =      13 # elements   =      13
  # resistors   =       0 # capacitors =       0 # inductors   =       0
  # mutual_inds =       0 # vccs       =       0 # vcvs        =       4
  # cccs        =       0 # ccvs       =       0 # volt_srcs   =       3
  # curr_srcs   =       0 # diodes     =       0 # bjts        =       0
  # jfets       =       0 # mosfets    =       6 # U elements  =       0
  # T elements  =       0 # W elements =       0 # B elements  =       0
  # S elements  =       0 # P elements =       0 # va device   =       0
  # vector_srcs =       0 # N elements =       0


  ******  Runtime Statistics (seconds)  ******

  analysis           time    # points   tot. iter  conv.iter
  op point           0.02           1           7
  dc sweep           1.03       14143       43052
  readin             0.01
  errchk             0.00
  setup              0.00
  output             0.00


           peak memory used        398.61 megabytes
           total cpu time            1.11 seconds
           total elapsed time        1.86 seconds
           job started at     21:00:06 03/18/2025
           job ended   at     21:00:08 03/18/2025
           job total runtime         1.86 seconds


 lic: Release hspice token(s) 
 lic: total license checkout elapse time:        0.74(s)
