 ****** HSPICE -- Q-2020.03-SP2-2 linux64 (Nov  1 2020) ******                  
  Copyright (c) 1986 - 2025 by Synopsys, Inc. All Rights Reserved.              
  This software and the associated documentation are proprietary
  to Synopsys, Inc. This software may only be used in accordance
  with the terms and conditions of a written license agreement with
  Synopsys, Inc. All other use, reproduction, or distribution of
  this software is strictly prohibited.
  Input File: ex1_1.sp                                                          
  Command line options: /RAID2/cad/synopsys/hspice/2020.03-sp2-2/hspice/linux64/hspice -i ex1_1.sp -o ex1_1.lis
  Start time: Tue Mar 18 21:10:22 2025
 lic:  
 lic: FLEXlm: SDK_12.6 
 lic: USER:   es25MCS042           HOSTNAME: ee28 
 lic: HOSTID: "d85ed3efc19a"       PID:      215024 
 lic: Using FLEXlm license file: 
 lic: 26585@lshc 
 lic: Checkout 1 hspice 
 lic: License/Maintenance for hspice will expire on 14-may-2025/2024.09 
 lic: 317(in_use)/1100(total) FLOATING license(s) on SERVER 26585@lshc 
 lic:   
  
      
             
 Warning:'Floating bulk' occurs 1 times
 Summary of floating bulk:
 -----------------------
 |Node      |Device    |
 |----------+----------|
 |x         |mn_ax1    |
 -----------------------
              
 *****************************************************************
 ******  option summary
 ******
 runlvl  = 3         bypass  = 2.0000    
 convergence problems in dc sweep curves at  0.26019    
  resimulating with dc convergence controls

 convergence problem in dc sweep curve at 0.26019    
 pseudo tran is tried

  *** pseudo tran succeeded *** 
 ******
 .title ex1_1

 ****** dc transfer curves tnom=  25.000 temp=  25.000 ******
x

 volt         voltage    voltage   
             q          qb         
 -707.10678m  699.7292m  129.4618u 
 -707.00678m  699.7295m  129.3017u 
 -706.90678m  699.7298m  129.1418u 
 -706.80678m  699.7301m  128.9821u 
 -706.70678m  699.7305m  128.8227u 
 -706.60678m  699.7308m  128.6634u 
 -706.50678m  699.7311m  128.5043u 
 -706.40678m  699.7314m  128.3455u 
 -706.30678m  699.7317m  128.1868u 
 -706.20678m  699.7321m  128.0284u 
 -706.10678m  699.7324m  127.8701u 
 -706.00678m  699.7327m  127.7121u 
 -705.90678m  699.7330m  127.5543u 
 -705.80678m  699.7334m  127.3966u 
 -705.70678m  699.7337m  127.2392u 
 -705.60678m  699.7340m  127.0820u 
 -705.50678m  699.7343m  126.9250u 
 -705.40678m  699.7346m  126.7681u 
 -705.30678m  699.7350m  126.6115u 
 -705.20678m  699.7353m  126.4551u 
 -705.10678m  699.7356m  126.2989u 
 -705.00678m  699.7359m  126.1429u 
 -704.90678m  699.7362m  125.9871u 
 -704.80678m  699.7366m  125.8315u 
 -704.70678m  699.7369m  125.6760u 
 -704.60678m  699.7372m  125.5208u 
 -704.50678m  699.7375m  125.3658u 
 -704.40678m  699.7378m  125.2110u 
 -704.30678m  699.7381m  125.0564u 
 -704.20678m  699.7384m  124.9020u 
 -704.10678m  699.7388m  124.7478u 
 -704.00678m  699.7391m  124.5938u 
 -703.90678m  699.7394m  124.4400u 
 -703.80678m  699.7397m  124.2864u 
 -703.70678m  699.7400m  124.1329u 
 -703.60678m  699.7403m  123.9797u 
 -703.50678m  699.7406m  123.8267u 
 -703.40678m  699.7410m  123.6739u 
 -703.30678m  699.7413m  123.5212u 
 -703.20678m  699.7416m  123.3688u 
 -703.10678m  699.7419m  123.2166u 
 -703.00678m  699.7422m  123.0645u 
 -702.90678m  699.7425m  122.9127u 
 -702.80678m  699.7428m  122.7610u 
 -702.70678m  699.7431m  122.6096u 
 -702.60678m  699.7434m  122.4583u 
 -702.50678m  699.7437m  122.3073u 
 -702.40678m  699.7440m  122.1564u 
 -702.30678m  699.7444m  122.0057u 
 -702.20678m  699.7447m  121.8553u 
 -702.10678m  699.7450m  121.7050u 
 -702.00678m  699.7453m  121.5549u 
 -701.90678m  699.7456m  121.4050u 
 -701.80678m  699.7459m  121.2553u 
 -701.70678m  699.7462m  121.1058u 
 -701.60678m  699.7465m  120.9564u 
 -701.50678m  699.7468m  120.8073u 
 -701.40678m  699.7471m  120.6584u 
 -701.30678m  699.7474m  120.5096u 
 -701.20678m  699.7477m  120.3611u 
 -701.10678m  699.7480m  120.2127u 
 -701.00678m  699.7483m  120.0645u 
 -700.90678m  699.7486m  119.9166u 
 -700.80678m  699.7489m  119.7688u 
 -700.70678m  699.7492m  119.6212u 
 -700.60678m  699.7495m  119.4738u 
 -700.50678m  699.7498m  119.3265u 
 -700.40678m  699.7501m  119.1795u 
 -700.30678m  699.7504m  119.0327u 
 -700.20678m  699.7507m  118.8860u 
 -700.10678m  699.7510m  118.7396u 
 -700.00678m  699.7513m  118.5933u 
 -699.90678m  699.7516m  118.4472u 
 -699.80678m  699.7519m  118.3013u 
 -699.70678m  699.7522m  118.1556u 
 -699.60678m  699.7525m  118.0101u 
 -699.50678m  699.7528m  117.8647u 
 -699.40678m  699.7531m  117.7196u 
 -699.30678m  699.7534m  117.5746u 
 -699.20678m  699.7537m  117.4298u 
 -699.10678m  699.7540m  117.2852u 
 -699.00678m  699.7543m  117.1408u 
 -698.90678m  699.7546m  116.9966u 
 -698.80678m  699.7549m  116.8526u 
 -698.70678m  699.7552m  116.7087u 
 -698.60678m  699.7555m  116.5651u 
 -698.50678m  699.7558m  116.4216u 
 -698.40678m  699.7561m  116.2783u 
 -698.30678m  699.7563m  116.1352u 
 -698.20678m  699.7566m  115.9923u 
 -698.10678m  699.7569m  115.8495u 
 -698.00678m  699.7572m  115.7070u 
 -697.90678m  699.7575m  115.5646u 
 -697.80678m  699.7578m  115.4224u 
 -697.70678m  699.7581m  115.2804u 
 -697.60678m  699.7584m  115.1386u 
 -697.50678m  699.7587m  114.9969u 
 -697.40678m  699.7590m  114.8554u 
 -697.30678m  699.7592m  114.7142u 
 -697.20678m  699.7595m  114.5731u 
 -697.10678m  699.7598m  114.4321u 
 -697.00678m  699.7601m  114.2914u 
 -696.90678m  699.7604m  114.1509u 
 -696.80678m  699.7607m  114.0105u 
 -696.70678m  699.7610m  113.8703u 
 -696.60678m  699.7613m  113.7303u 
 -696.50678m  699.7615m  113.5904u 
 -696.40678m  699.7618m  113.4508u 
 -696.30678m  699.7621m  113.3113u 
 -696.20678m  699.7624m  113.1720u 
 -696.10678m  699.7627m  113.0329u 
 -696.00678m  699.7630m  112.8939u 
 -695.90678m  699.7633m  112.7552u 
 -695.80678m  699.7635m  112.6166u 
 -695.70678m  699.7638m  112.4782u 
 -695.60678m  699.7641m  112.3399u 
 -695.50678m  699.7644m  112.2019u 
 -695.40678m  699.7647m  112.0640u 
 -695.30678m  699.7650m  111.9263u 
 -695.20678m  699.7652m  111.7888u 
 -695.10678m  699.7655m  111.6515u 
 -695.00678m  699.7658m  111.5143u 
 -694.90678m  699.7661m  111.3773u 
 -694.80678m  699.7664m  111.2405u 
 -694.70678m  699.7666m  111.1038u 
 -694.60678m  699.7669m  110.9674u 
 -694.50678m  699.7672m  110.8311u 
 -694.40678m  699.7675m  110.6950u 
 -694.30678m  699.7677m  110.5590u 
 -694.20678m  699.7680m  110.4233u 
 -694.10678m  699.7683m  110.2877u 
 -694.00678m  699.7686m  110.1523u 
 -693.90678m  699.7689m  110.0170u 
 -693.80678m  699.7691m  109.8819u 
 -693.70678m  699.7694m  109.7470u 
 -693.60678m  699.7697m  109.6123u 
 -693.50678m  699.7700m  109.4778u 
 -693.40678m  699.7702m  109.3434u 
 -693.30678m  699.7705m  109.2092u 
 -693.20678m  699.7708m  109.0751u 
 -693.10678m  699.7711m  108.9413u 
 -693.00678m  699.7713m  108.8076u 
 -692.90678m  699.7716m  108.6741u 
 -692.80678m  699.7719m  108.5407u 
 -692.70678m  699.7722m  108.4075u 
 -692.60678m  699.7724m  108.2745u 
 -692.50678m  699.7727m  108.1417u 
 -692.40678m  699.7730m  108.0090u 
 -692.30678m  699.7732m  107.8765u 
 -692.20678m  699.7735m  107.7442u 
 -692.10678m  699.7738m  107.6120u 
 -692.00678m  699.7741m  107.4801u 
 -691.90678m  699.7743m  107.3482u 
 -691.80678m  699.7746m  107.2166u 
 -691.70678m  699.7749m  107.0851u 
 -691.60678m  699.7751m  106.9538u 
 -691.50678m  699.7754m  106.8227u 
 -691.40678m  699.7757m  106.6917u 
 -691.30678m  699.7759m  106.5609u 
 -691.20678m  699.7762m  106.4302u 
 -691.10678m  699.7765m  106.2997u 
 -691.00678m  699.7767m  106.1694u 
 -690.90678m  699.7770m  106.0393u 
 -690.80678m  699.7773m  105.9093u 
 -690.70678m  699.7775m  105.7795u 
 -690.60678m  699.7778m  105.6499u 
 -690.50678m  699.7781m  105.5204u 
 -690.40678m  699.7783m  105.3911u 
 -690.30678m  699.7786m  105.2620u 
 -690.20678m  699.7789m  105.1330u 
 -690.10678m  699.7791m  105.0042u 
 -690.00678m  699.7794m  104.8755u 
 -689.90678m  699.7797m  104.7470u 
 -689.80678m  699.7799m  104.6187u 
 -689.70678m  699.7802m  104.4906u 
 -689.60678m  699.7804m  104.3626u 
 -689.50678m  699.7807m  104.2347u 
 -689.40678m  699.7810m  104.1071u 
 -689.30678m  699.7812m  103.9796u 
 -689.20678m  699.7815m  103.8522u 
 -689.10678m  699.7817m  103.7251u 
 -689.00678m  699.7820m  103.5980u 
 -688.90678m  699.7823m  103.4712u 
 -688.80678m  699.7825m  103.3445u 
 -688.70678m  699.7828m  103.2180u 
 -688.60678m  699.7830m  103.0916u 
 -688.50678m  699.7833m  102.9654u 
 -688.40678m  699.7836m  102.8394u 
 -688.30678m  699.7838m  102.7135u 
 -688.20678m  699.7841m  102.5878u 
 -688.10678m  699.7843m  102.4622u 
 -688.00678m  699.7846m  102.3368u 
 -687.90678m  699.7849m  102.2116u 
 -687.80678m  699.7851m  102.0865u 
 -687.70678m  699.7854m  101.9616u 
 -687.60678m  699.7856m  101.8369u 
 -687.50678m  699.7859m  101.7123u 
 -687.40678m  699.7861m  101.5878u 
 -687.30678m  699.7864m  101.4635u 
 -687.20678m  699.7866m  101.3394u 
 -687.10678m  699.7869m  101.2155u 
 -687.00678m  699.7871m  101.0917u 
 -686.90678m  699.7874m  100.9680u 
 -686.80678m  699.7877m  100.8445u 
 -686.70678m  699.7879m  100.7212u 
 -686.60678m  699.7882m  100.5980u 
 -686.50678m  699.7884m  100.4750u 
 -686.40678m  699.7887m  100.3522u 
 -686.30678m  699.7889m  100.2295u 
 -686.20678m  699.7892m  100.1069u 
 -686.10678m  699.7894m   99.9845u 
 -686.00678m  699.7897m   99.8623u 
 -685.90678m  699.7899m   99.7402u 
 -685.80678m  699.7902m   99.6183u 
 -685.70678m  699.7904m   99.4965u 
 -685.60678m  699.7907m   99.3749u 
 -685.50678m  699.7909m   99.2535u 
 -685.40678m  699.7912m   99.1322u 
 -685.30678m  699.7914m   99.0111u 
 -685.20678m  699.7917m   98.8901u 
 -685.10678m  699.7919m   98.7692u 
 -685.00678m  699.7922m   98.6486u 
 -684.90678m  699.7924m   98.5280u 
 -684.80678m  699.7927m   98.4077u 
 -684.70678m  699.7929m   98.2875u 
 -684.60678m  699.7931m   98.1674u 
 -684.50678m  699.7934m   98.0475u 
 -684.40678m  699.7936m   97.9277u 
 -684.30678m  699.7939m   97.8081u 
 -684.20678m  699.7941m   97.6887u 
 -684.10678m  699.7944m   97.5694u 
 -684.00678m  699.7946m   97.4502u 
 -683.90678m  699.7949m   97.3312u 
 -683.80678m  699.7951m   97.2124u 
 -683.70678m  699.7954m   97.0937u 
 -683.60678m  699.7956m   96.9752u 
 -683.50678m  699.7958m   96.8568u 
 -683.40678m  699.7961m   96.7385u 
 -683.30678m  699.7963m   96.6205u 
 -683.20678m  699.7966m   96.5025u 
 -683.10678m  699.7968m   96.3847u 
 -683.00678m  699.7971m   96.2671u 
 -682.90678m  699.7973m   96.1496u 
 -682.80678m  699.7975m   96.0323u 
 -682.70678m  699.7978m   95.9151u 
 -682.60678m  699.7980m   95.7981u 
 -682.50678m  699.7983m   95.6812u 
 -682.40678m  699.7985m   95.5644u 
 -682.30678m  699.7987m   95.4478u 
 -682.20678m  699.7990m   95.3314u 
 -682.10678m  699.7992m   95.2151u 
 -682.00678m  699.7995m   95.0990u 
 -681.90678m  699.7997m   94.9830u 
 -681.80678m  699.7999m   94.8671u 
 -681.70678m  699.8002m   94.7514u 
 -681.60678m  699.8004m   94.6359u 
 -681.50678m  699.8006m   94.5205u 
 -681.40678m  699.8009m   94.4052u 
 -681.30678m  699.8011m   94.2901u 
 -681.20678m  699.8014m   94.1751u 
 -681.10678m  699.8016m   94.0603u 
 -681.00678m  699.8018m   93.9457u 
 -680.90678m  699.8021m   93.8311u 
 -680.80678m  699.8023m   93.7168u 
 -680.70678m  699.8025m   93.6025u 
 -680.60678m  699.8028m   93.4884u 
 -680.50678m  699.8030m   93.3745u 
 -680.40678m  699.8032m   93.2607u 
 -680.30678m  699.8035m   93.1470u 
 -680.20678m  699.8037m   93.0335u 
 -680.10678m  699.8039m   92.9202u 
 -680.00678m  699.8042m   92.8070u 
 -679.90678m  699.8044m   92.6939u 
 -679.80678m  699.8046m   92.5810u 
 -679.70678m  699.8049m   92.4682u 
 -679.60678m  699.8051m   92.3555u 
 -679.50678m  699.8053m   92.2430u 
 -679.40678m  699.8056m   92.1307u 
 -679.30678m  699.8058m   92.0185u 
 -679.20678m  699.8060m   91.9064u 
 -679.10678m  699.8062m   91.7945u 
 -679.00678m  699.8065m   91.6827u 
 -678.90678m  699.8067m   91.5710u 
 -678.80678m  699.8069m   91.4595u 
 -678.70678m  699.8072m   91.3482u 
 -678.60678m  699.8074m   91.2370u 
 -678.50678m  699.8076m   91.1259u 
 -678.40678m  699.8078m   91.0149u 
 -678.30678m  699.8081m   90.9042u 
 -678.20678m  699.8083m   90.7935u 
 -678.10678m  699.8085m   90.6830u 
 -678.00678m  699.8088m   90.5726u 
 -677.90678m  699.8090m   90.4624u 
 -677.80678m  699.8092m   90.3523u 
 -677.70678m  699.8094m   90.2423u 
 -677.60678m  699.8097m   90.1325u 
 -677.50678m  699.8099m   90.0229u 
 -677.40678m  699.8101m   89.9133u 
 -677.30678m  699.8103m   89.8039u 
 -677.20678m  699.8106m   89.6947u 
 -677.10678m  699.8108m   89.5856u 
 -677.00678m  699.8110m   89.4766u 
 -676.90678m  699.8112m   89.3678u 
 -676.80678m  699.8115m   89.2591u 
 -676.70678m  699.8117m   89.1505u 
 -676.60678m  699.8119m   89.0421u 
 -676.50678m  699.8121m   88.9338u 
 -676.40678m  699.8124m   88.8257u 
 -676.30678m  699.8126m   88.7177u 
 -676.20678m  699.8128m   88.6098u 
 -676.10678m  699.8130m   88.5021u 
 -676.00678m  699.8132m   88.3945u 
 -675.90678m  699.8135m   88.2870u 
 -675.80678m  699.8137m   88.1797u 
 -675.70678m  699.8139m   88.0725u 
 -675.60678m  699.8141m   87.9654u 
 -675.50678m  699.8143m   87.8585u 
 -675.40678m  699.8146m   87.7517u 
 -675.30678m  699.8148m   87.6451u 
 -675.20678m  699.8150m   87.5386u 
 -675.10678m  699.8152m   87.4322u 
 -675.00678m  699.8154m   87.3260u 
 -674.90678m  699.8157m   87.2199u 
 -674.80678m  699.8159m   87.1139u 
 -674.70678m  699.8161m   87.0081u 
 -674.60678m  699.8163m   86.9024u 
 -674.50678m  699.8165m   86.7968u 
 -674.40678m  699.8168m   86.6914u 
 -674.30678m  699.8170m   86.5861u 
 -674.20678m  699.8172m   86.4809u 
 -674.10678m  699.8174m   86.3759u 
 -674.00678m  699.8176m   86.2710u 
 -673.90678m  699.8178m   86.1662u 
 -673.80678m  699.8180m   86.0616u 
 -673.70678m  699.8183m   85.9571u 
 -673.60678m  699.8185m   85.8527u 
 -673.50678m  699.8187m   85.7485u 
 -673.40678m  699.8189m   85.6444u 
 -673.30678m  699.8191m   85.5405u 
 -673.20678m  699.8193m   85.4366u 
 -673.10678m  699.8195m   85.3329u 
 -673.00678m  699.8198m   85.2293u 
 -672.90678m  699.8200m   85.1259u 
 -672.80678m  699.8202m   85.0226u 
 -672.70678m  699.8204m   84.9194u 
 -672.60678m  699.8206m   84.8164u 
 -672.50678m  699.8208m   84.7135u 
 -672.40678m  699.8210m   84.6107u 
 -672.30678m  699.8213m   84.5080u 
 -672.20678m  699.8215m   84.4055u 
 -672.10678m  699.8217m   84.3031u 
 -672.00678m  699.8219m   84.2008u 
 -671.90678m  699.8221m   84.0987u 
 -671.80678m  699.8223m   83.9967u 
 -671.70678m  699.8225m   83.8948u 
 -671.60678m  699.8227m   83.7931u 
 -671.50678m  699.8229m   83.6914u 
 -671.40678m  699.8231m   83.5900u 
 -671.30678m  699.8234m   83.4886u 
 -671.20678m  699.8236m   83.3874u 
 -671.10678m  699.8238m   83.2863u 
 -671.00678m  699.8240m   83.1853u 
 -670.90678m  699.8242m   83.0844u 
 -670.80678m  699.8244m   82.9837u 
 -670.70678m  699.8246m   82.8831u 
 -670.60678m  699.8248m   82.7827u 
 -670.50678m  699.8250m   82.6823u 
 -670.40678m  699.8252m   82.5821u 
 -670.30678m  699.8254m   82.4820u 
 -670.20678m  699.8256m   82.3821u 
 -670.10678m  699.8258m   82.2822u 
 -670.00678m  699.8260m   82.1825u 
 -669.90678m  699.8263m   82.0830u 
 -669.80678m  699.8265m   81.9835u 
 -669.70678m  699.8267m   81.8842u 
 -669.60678m  699.8269m   81.7850u 
 -669.50678m  699.8271m   81.6859u 
 -669.40678m  699.8273m   81.5870u 
 -669.30678m  699.8275m   81.4882u 
 -669.20678m  699.8277m   81.3895u 
 -669.10678m  699.8279m   81.2909u 
 -669.00678m  699.8281m   81.1924u 
 -668.90678m  699.8283m   81.0941u 
 -668.80678m  699.8285m   80.9959u 
 -668.70678m  699.8287m   80.8978u 
 -668.60678m  699.8289m   80.7999u 
 -668.50678m  699.8291m   80.7021u 
 -668.40678m  699.8293m   80.6044u 
 -668.30678m  699.8295m   80.5068u 
 -668.20678m  699.8297m   80.4093u 
 -668.10678m  699.8299m   80.3120u 
 -668.00678m  699.8301m   80.2148u 
 -667.90678m  699.8303m   80.1177u 
 -667.80678m  699.8305m   80.0208u 
 -667.70678m  699.8307m   79.9239u 
 -667.60678m  699.8309m   79.8272u 
 -667.50678m  699.8311m   79.7306u 
 -667.40678m  699.8313m   79.6341u 
 -667.30678m  699.8315m   79.5378u 
 -667.20678m  699.8317m   79.4416u 
 -667.10678m  699.8319m   79.3455u 
 -667.00678m  699.8321m   79.2495u 
 -666.90678m  699.8323m   79.1536u 
 -666.80678m  699.8325m   79.0579u 
 -666.70678m  699.8327m   78.9623u 
 -666.60678m  699.8329m   78.8668u 
 -666.50678m  699.8331m   78.7714u 
 -666.40678m  699.8333m   78.6761u 
 -666.30678m  699.8335m   78.5810u 
 -666.20678m  699.8337m   78.4860u 
 -666.10678m  699.8339m   78.3911u 
 -666.00678m  699.8341m   78.2963u 
 -665.90678m  699.8343m   78.2016u 
 -665.80678m  699.8345m   78.1071u 
 -665.70678m  699.8347m   78.0127u 
 -665.60678m  699.8348m   77.9184u 
 -665.50678m  699.8350m   77.8242u 
 -665.40678m  699.8352m   77.7302u 
 -665.30678m  699.8354m   77.6362u 
 -665.20678m  699.8356m   77.5424u 
 -665.10678m  699.8358m   77.4487u 
 -665.00678m  699.8360m   77.3551u 
 -664.90678m  699.8362m   77.2616u 
 -664.80678m  699.8364m   77.1683u 
 -664.70678m  699.8366m   77.0751u 
 -664.60678m  699.8368m   76.9819u 
 -664.50678m  699.8370m   76.8889u 
 -664.40678m  699.8372m   76.7961u 
 -664.30678m  699.8374m   76.7033u 
 -664.20678m  699.8376m   76.6107u 
 -664.10678m  699.8377m   76.5181u 
 -664.00678m  699.8379m   76.4257u 
 -663.90678m  699.8381m   76.3334u 
 -663.80678m  699.8383m   76.2413u 
 -663.70678m  699.8385m   76.1492u 
 -663.60678m  699.8387m   76.0573u 
 -663.50678m  699.8389m   75.9654u 
 -663.40678m  699.8391m   75.8737u 
 -663.30678m  699.8393m   75.7821u 
 -663.20678m  699.8395m   75.6907u 
 -663.10678m  699.8396m   75.5993u 
 -663.00678m  699.8398m   75.5080u 
 -662.90678m  699.8400m   75.4169u 
 -662.80678m  699.8402m   75.3259u 
 -662.70678m  699.8404m   75.2350u 
 -662.60678m  699.8406m   75.1442u 
 -662.50678m  699.8408m   75.0535u 
 -662.40678m  699.8410m   74.9630u 
 -662.30678m  699.8411m   74.8725u 
 -662.20678m  699.8413m   74.7822u 
 -662.10678m  699.8415m   74.6920u 
 -662.00678m  699.8417m   74.6019u 
 -661.90678m  699.8419m   74.5119u 
 -661.80678m  699.8421m   74.4220u 
 -661.70678m  699.8423m   74.3323u 
 -661.60678m  699.8424m   74.2426u 
 -661.50678m  699.8426m   74.1531u 
 -661.40678m  699.8428m   74.0636u 
 -661.30678m  699.8430m   73.9743u 
 -661.20678m  699.8432m   73.8851u 
 -661.10678m  699.8434m   73.7961u 
 -661.00678m  699.8436m   73.7071u 
 -660.90678m  699.8437m   73.6182u 
 -660.80678m  699.8439m   73.5295u 
 -660.70678m  699.8441m   73.4408u 
 -660.60678m  699.8443m   73.3523u 
 -660.50678m  699.8445m   73.2639u 
 -660.40678m  699.8447m   73.1756u 
 -660.30678m  699.8448m   73.0874u 
 -660.20678m  699.8450m   72.9993u 
 -660.10678m  699.8452m   72.9114u 
 -660.00678m  699.8454m   72.8235u 
 -659.90678m  699.8456m   72.7358u 
 -659.80678m  699.8457m   72.6481u 
 -659.70678m  699.8459m   72.5606u 
 -659.60678m  699.8461m   72.4732u 
 -659.50678m  699.8463m   72.3859u 
 -659.40678m  699.8465m   72.2987u 
 -659.30678m  699.8467m   72.2116u 
 -659.20678m  699.8468m   72.1246u 
 -659.10678m  699.8470m   72.0378u 
 -659.00678m  699.8472m   71.9510u 
 -658.90678m  699.8474m   71.8644u 
 -658.80678m  699.8475m   71.7778u 
 -658.70678m  699.8477m   71.6914u 
 -658.60678m  699.8479m   71.6051u 
 -658.50678m  699.8481m   71.5189u 
 -658.40678m  699.8483m   71.4328u 
 -658.30678m  699.8484m   71.3468u 
 -658.20678m  699.8486m   71.2609u 
 -658.10678m  699.8488m   71.1751u 
 -658.00678m  699.8490m   71.0895u 
 -657.90678m  699.8492m   71.0039u 
 -657.80678m  699.8493m   70.9185u 
 -657.70678m  699.8495m   70.8331u 
 -657.60678m  699.8497m   70.7479u 
 -657.50678m  699.8499m   70.6627u 
 -657.40678m  699.8500m   70.5777u 
 -657.30678m  699.8502m   70.4928u 
 -657.20678m  699.8504m   70.4080u 
 -657.10678m  699.8506m   70.3233u 
 -657.00678m  699.8507m   70.2387u 
 -656.90678m  699.8509m   70.1542u 
 -656.80678m  699.8511m   70.0698u 
 -656.70678m  699.8513m   69.9856u 
 -656.60678m  699.8514m   69.9014u 
 -656.50678m  699.8516m   69.8173u 
 -656.40678m  699.8518m   69.7334u 
 -656.30678m  699.8520m   69.6495u 
 -656.20678m  699.8521m   69.5658u 
 -656.10678m  699.8523m   69.4821u 
 -656.00678m  699.8525m   69.3986u 
 -655.90678m  699.8527m   69.3152u 
 -655.80678m  699.8528m   69.2318u 
 -655.70678m  699.8530m   69.1486u 
 -655.60678m  699.8532m   69.0655u 
 -655.50678m  699.8533m   68.9825u 
 -655.40678m  699.8535m   68.8996u 
 -655.30678m  699.8537m   68.8168u 
 -655.20678m  699.8539m   68.7341u 
 -655.10678m  699.8540m   68.6515u 
 -655.00678m  699.8542m   68.5690u 
 -654.90678m  699.8544m   68.4866u 
 -654.80678m  699.8545m   68.4043u 
 -654.70678m  699.8547m   68.3221u 
 -654.60678m  699.8549m   68.2401u 
 -654.50678m  699.8550m   68.1581u 
 -654.40678m  699.8552m   68.0762u 
 -654.30678m  699.8554m   67.9944u 
 -654.20678m  699.8556m   67.9128u 
 -654.10678m  699.8557m   67.8312u 
 -654.00678m  699.8559m   67.7498u 
 -653.90678m  699.8561m   67.6684u 
 -653.80678m  699.8562m   67.5872u 
 -653.70678m  699.8564m   67.5060u 
 -653.60678m  699.8566m   67.4249u 
 -653.50678m  699.8567m   67.3440u 
 -653.40678m  699.8569m   67.2632u 
 -653.30678m  699.8571m   67.1824u 
 -653.20678m  699.8572m   67.1018u 
 -653.10678m  699.8574m   67.0212u 
 -653.00678m  699.8576m   66.9408u 
 -652.90678m  699.8577m   66.8604u 
 -652.80678m  699.8579m   66.7802u 
 -652.70678m  699.8581m   66.7001u 
 -652.60678m  699.8582m   66.6200u 
 -652.50678m  699.8584m   66.5401u 
 -652.40678m  699.8586m   66.4602u 
 -652.30678m  699.8587m   66.3805u 
 -652.20678m  699.8589m   66.3009u 
 -652.10678m  699.8591m   66.2213u 
 -652.00678m  699.8592m   66.1419u 
 -651.90678m  699.8594m   66.0626u 
 -651.80678m  699.8596m   65.9833u 
 -651.70678m  699.8597m   65.9042u 
 -651.60678m  699.8599m   65.8252u 
 -651.50678m  699.8601m   65.7462u 
 -651.40678m  699.8602m   65.6674u 
 -651.30678m  699.8604m   65.5886u 
 -651.20678m  699.8605m   65.5100u 
 -651.10678m  699.8607m   65.4314u 
 -651.00678m  699.8609m   65.3530u 
 -650.90678m  699.8610m   65.2747u 
 -650.80678m  699.8612m   65.1964u 
 -650.70678m  699.8614m   65.1183u 
 -650.60678m  699.8615m   65.0402u 
 -650.50678m  699.8617m   64.9623u 
 -650.40678m  699.8618m   64.8844u 
 -650.30678m  699.8620m   64.8066u 
 -650.20678m  699.8622m   64.7290u 
 -650.10678m  699.8623m   64.6514u 
 -650.00678m  699.8625m   64.5739u 
 -649.90678m  699.8626m   64.4966u 
 -649.80678m  699.8628m   64.4193u 
 -649.70678m  699.8630m   64.3421u 
 -649.60678m  699.8631m   64.2651u 
 -649.50678m  699.8633m   64.1881u 
 -649.40678m  699.8634m   64.1112u 
 -649.30678m  699.8636m   64.0344u 
 -649.20678m  699.8638m   63.9577u 
 -649.10678m  699.8639m   63.8811u 
 -649.00678m  699.8641m   63.8046u 
 -648.90678m  699.8642m   63.7282u 
 -648.80678m  699.8644m   63.6519u 
 -648.70678m  699.8646m   63.5757u 
 -648.60678m  699.8647m   63.4996u 
 -648.50678m  699.8649m   63.4236u 
 -648.40678m  699.8650m   63.3476u 
 -648.30678m  699.8652m   63.2718u 
 -648.20678m  699.8653m   63.1961u 
 -648.10678m  699.8655m   63.1204u 
 -648.00678m  699.8657m   63.0449u 
 -647.90678m  699.8658m   62.9694u 
 -647.80678m  699.8660m   62.8941u 
 -647.70678m  699.8661m   62.8188u 
 -647.60678m  699.8663m   62.7436u 
 -647.50678m  699.8664m   62.6686u 
 -647.40678m  699.8666m   62.5936u 
 -647.30678m  699.8668m   62.5187u 
 -647.20678m  699.8669m   62.4439u 
 -647.10678m  699.8671m   62.3692u 
 -647.00678m  699.8672m   62.2946u 
 -646.90678m  699.8674m   62.2201u 
 -646.80678m  699.8675m   62.1457u 
 -646.70678m  699.8677m   62.0714u 
 -646.60678m  699.8678m   61.9971u 
 -646.50678m  699.8680m   61.9230u 
 -646.40678m  699.8681m   61.8489u 
 -646.30678m  699.8683m   61.7750u 
 -646.20678m  699.8685m   61.7011u 
 -646.10678m  699.8686m   61.6274u 
 -646.00678m  699.8688m   61.5537u 
 -645.90678m  699.8689m   61.4801u 
 -645.80678m  699.8691m   61.4066u 
 -645.70678m  699.8692m   61.3332u 
 -645.60678m  699.8694m   61.2599u 
 -645.50678m  699.8695m   61.1867u 
 -645.40678m  699.8697m   61.1136u 
 -645.30678m  699.8698m   61.0405u 
 -645.20678m  699.8700m   60.9676u 
 -645.10678m  699.8701m   60.8947u 
 -645.00678m  699.8703m   60.8220u 
 -644.90678m  699.8704m   60.7493u 
 -644.80678m  699.8706m   60.6767u 
 -644.70678m  699.8707m   60.6043u 
 -644.60678m  699.8709m   60.5319u 
 -644.50678m  699.8710m   60.4596u 
 -644.40678m  699.8712m   60.3873u 
 -644.30678m  699.8713m   60.3152u 
 -644.20678m  699.8715m   60.2432u 
 -644.10678m  699.8716m   60.1712u 
 -644.00678m  699.8718m   60.0994u 
 -643.90678m  699.8719m   60.0276u 
 -643.80678m  699.8721m   59.9560u 
 -643.70678m  699.8722m   59.8844u 
 -643.60678m  699.8724m   59.8129u 
 -643.50678m  699.8725m   59.7415u 
 -643.40678m  699.8727m   59.6702u 
 -643.30678m  699.8728m   59.5989u 
 -643.20678m  699.8730m   59.5278u 
 -643.10678m  699.8731m   59.4567u 
 -643.00678m  699.8733m   59.3858u 
 -642.90678m  699.8734m   59.3149u 
 -642.80678m  699.8736m   59.2441u 
 -642.70678m  699.8737m   59.1734u 
 -642.60678m  699.8739m   59.1028u 
 -642.50678m  699.8740m   59.0323u 
 -642.40678m  699.8742m   58.9619u 
 -642.30678m  699.8743m   58.8915u 
 -642.20678m  699.8744m   58.8213u 
 -642.10678m  699.8746m   58.7511u 
 -642.00678m  699.8747m   58.6811u 
 -641.90678m  699.8749m   58.6111u 
 -641.80678m  699.8750m   58.5412u 
 -641.70678m  699.8752m   58.4713u 
 -641.60678m  699.8753m   58.4016u 
 -641.50678m  699.8755m   58.3320u 
 -641.40678m  699.8756m   58.2624u 
 -641.30678m  699.8758m   58.1930u 
 -641.20678m  699.8759m   58.1236u 
 -641.10678m  699.8760m   58.0543u 
 -641.00678m  699.8762m   57.9851u 
 -640.90678m  699.8763m   57.9160u 
 -640.80678m  699.8765m   57.8469u 
 -640.70678m  699.8766m   57.7780u 
 -640.60678m  699.8768m   57.7091u 
 -640.50678m  699.8769m   57.6403u 
 -640.40678m  699.8770m   57.5716u 
 -640.30678m  699.8772m   57.5030u 
 -640.20678m  699.8773m   57.4345u 
 -640.10678m  699.8775m   57.3661u 
 -640.00678m  699.8776m   57.2977u 
 -639.90678m  699.8778m   57.2295u 
 -639.80678m  699.8779m   57.1613u 
 -639.70678m  699.8780m   57.0932u 
 -639.60678m  699.8782m   57.0252u 
 -639.50678m  699.8783m   56.9573u 
 -639.40678m  699.8785m   56.8894u 
 -639.30678m  699.8786m   56.8217u 
 -639.20678m  699.8787m   56.7540u 
 -639.10678m  699.8789m   56.6864u 
 -639.00678m  699.8790m   56.6189u 
 -638.90678m  699.8792m   56.5515u 
 -638.80678m  699.8793m   56.4842u 
 -638.70678m  699.8795m   56.4170u 
 -638.60678m  699.8796m   56.3498u 
 -638.50678m  699.8797m   56.2827u 
 -638.40678m  699.8799m   56.2157u 
 -638.30678m  699.8800m   56.1488u 
 -638.20678m  699.8801m   56.0820u 
 -638.10678m  699.8803m   56.0152u 
 -638.00678m  699.8804m   55.9486u 
 -637.90678m  699.8806m   55.8820u 
 -637.80678m  699.8807m   55.8155u 
 -637.70678m  699.8808m   55.7491u 
 -637.60678m  699.8810m   55.6828u 
 -637.50678m  699.8811m   55.6165u 
 -637.40678m  699.8813m   55.5503u 
 -637.30678m  699.8814m   55.4843u 
 -637.20678m  699.8815m   55.4183u 
 -637.10678m  699.8817m   55.3523u 
 -637.00678m  699.8818m   55.2865u 
 -636.90678m  699.8819m   55.2208u 
 -636.80678m  699.8821m   55.1551u 
 -636.70678m  699.8822m   55.0895u 
 -636.60678m  699.8824m   55.0240u 
 -636.50678m  699.8825m   54.9586u 
 -636.40678m  699.8826m   54.8932u 
 -636.30678m  699.8828m   54.8280u 
 -636.20678m  699.8829m   54.7628u 
 -636.10678m  699.8830m   54.6977u 
 -636.00678m  699.8832m   54.6327u 
 -635.90678m  699.8833m   54.5677u 
 -635.80678m  699.8834m   54.5029u 
 -635.70678m  699.8836m   54.4381u 
 -635.60678m  699.8837m   54.3734u 
 -635.50678m  699.8838m   54.3088u 
 -635.40678m  699.8840m   54.2442u 
 -635.30678m  699.8841m   54.1798u 
 -635.20678m  699.8842m   54.1154u 
 -635.10678m  699.8844m   54.0511u 
 -635.00678m  699.8845m   53.9869u 
 -634.90678m  699.8847m   53.9228u 
 -634.80678m  699.8848m   53.8587u 
 -634.70678m  699.8849m   53.7947u 
 -634.60678m  699.8851m   53.7308u 
 -634.50678m  699.8852m   53.6670u 
 -634.40678m  699.8853m   53.6033u 
 -634.30678m  699.8855m   53.5396u 
 -634.20678m  699.8856m   53.4761u 
 -634.10678m  699.8857m   53.4126u 
 -634.00678m  699.8858m   53.3491u 
 -633.90678m  699.8860m   53.2858u 
 -633.80678m  699.8861m   53.2225u 
 -633.70678m  699.8862m   53.1594u 
 -633.60678m  699.8864m   53.0963u 
 -633.50678m  699.8865m   53.0332u 
 -633.40678m  699.8866m   52.9703u 
 -633.30678m  699.8868m   52.9074u 
 -633.20678m  699.8869m   52.8446u 
 -633.10678m  699.8870m   52.7819u 
 -633.00678m  699.8872m   52.7193u 
 -632.90678m  699.8873m   52.6567u 
 -632.80678m  699.8874m   52.5942u 
 -632.70678m  699.8876m   52.5318u 
 -632.60678m  699.8877m   52.4695u 
 -632.50678m  699.8878m   52.4073u 
 -632.40678m  699.8879m   52.3451u 
 -632.30678m  699.8881m   52.2830u 
 -632.20678m  699.8882m   52.2210u 
 -632.10678m  699.8883m   52.1591u 
 -632.00678m  699.8885m   52.0972u 
 -631.90678m  699.8886m   52.0354u 
 -631.80678m  699.8887m   51.9737u 
 -631.70678m  699.8888m   51.9121u 
 -631.60678m  699.8890m   51.8505u 
 -631.50678m  699.8891m   51.7891u 
 -631.40678m  699.8892m   51.7277u 
 -631.30678m  699.8894m   51.6663u 
 -631.20678m  699.8895m   51.6051u 
 -631.10678m  699.8896m   51.5439u 
 -631.00678m  699.8897m   51.4828u 
 -630.90678m  699.8899m   51.4218u 
 -630.80678m  699.8900m   51.3609u 
 -630.70678m  699.8901m   51.3000u 
 -630.60678m  699.8903m   51.2392u 
 -630.50678m  699.8904m   51.1785u 
 -630.40678m  699.8905m   51.1179u 
 -630.30678m  699.8906m   51.0573u 
 -630.20678m  699.8908m   50.9968u 
 -630.10678m  699.8909m   50.9364u 
 -630.00678m  699.8910m   50.8760u 
 -629.90678m  699.8911m   50.8158u 
 -629.80678m  699.8913m   50.7556u 
 -629.70678m  699.8914m   50.6955u 
 -629.60678m  699.8915m   50.6354u 
 -629.50678m  699.8916m   50.5755u 
 -629.40678m  699.8918m   50.5156u 
 -629.30678m  699.8919m   50.4558u 
 -629.20678m  699.8920m   50.3960u 
 -629.10678m  699.8921m   50.3364u 
 -629.00678m  699.8923m   50.2768u 
 -628.90678m  699.8924m   50.2172u 
 -628.80678m  699.8925m   50.1578u 
 -628.70678m  699.8926m   50.0984u 
 -628.60678m  699.8928m   50.0391u 
 -628.50678m  699.8929m   49.9799u 
 -628.40678m  699.8930m   49.9207u 
 -628.30678m  699.8931m   49.8617u 
 -628.20678m  699.8933m   49.8027u 
 -628.10678m  699.8934m   49.7437u 
 -628.00678m  699.8935m   49.6849u 
 -627.90678m  699.8936m   49.6261u 
 -627.80678m  699.8937m   49.5674u 
 -627.70678m  699.8939m   49.5087u 
 -627.60678m  699.8940m   49.4502u 
 -627.50678m  699.8941m   49.3917u 
 -627.40678m  699.8942m   49.3332u 
 -627.30678m  699.8944m   49.2749u 
 -627.20678m  699.8945m   49.2166u 
 -627.10678m  699.8946m   49.1584u 
 -627.00678m  699.8947m   49.1003u 
 -626.90678m  699.8948m   49.0422u 
 -626.80678m  699.8950m   48.9842u 
 -626.70678m  699.8951m   48.9263u 
 -626.60678m  699.8952m   48.8685u 
 -626.50678m  699.8953m   48.8107u 
 -626.40678m  699.8955m   48.7530u 
 -626.30678m  699.8956m   48.6954u 
 -626.20678m  699.8957m   48.6378u 
 -626.10678m  699.8958m   48.5803u 
 -626.00678m  699.8959m   48.5229u 
 -625.90678m  699.8961m   48.4656u 
 -625.80678m  699.8962m   48.4083u 
 -625.70678m  699.8963m   48.3511u 
 -625.60678m  699.8964m   48.2940u 
 -625.50678m  699.8965m   48.2369u 
 -625.40678m  699.8966m   48.1799u 
 -625.30678m  699.8968m   48.1230u 
 -625.20678m  699.8969m   48.0661u 
 -625.10678m  699.8970m   48.0094u 
 -625.00678m  699.8971m   47.9526u 
 -624.90678m  699.8972m   47.8960u 
 -624.80678m  699.8974m   47.8394u 
 -624.70678m  699.8975m   47.7829u 
 -624.60678m  699.8976m   47.7265u 
 -624.50678m  699.8977m   47.6702u 
 -624.40678m  699.8978m   47.6139u 
 -624.30678m  699.8980m   47.5577u 
 -624.20678m  699.8981m   47.5015u 
 -624.10678m  699.8982m   47.4454u 
 -624.00678m  699.8983m   47.3894u 
 -623.90678m  699.8984m   47.3335u 
 -623.80678m  699.8985m   47.2776u 
 -623.70678m  699.8987m   47.2218u 
 -623.60678m  699.8988m   47.1661u 
 -623.50678m  699.8989m   47.1104u 
 -623.40678m  699.8990m   47.0548u 
 -623.30678m  699.8991m   46.9993u 
 -623.20678m  699.8992m   46.9438u 
 -623.10678m  699.8994m   46.8884u 
 -623.00678m  699.8995m   46.8331u 
 -622.90678m  699.8996m   46.7779u 
 -622.80678m  699.8997m   46.7227u 
 -622.70678m  699.8998m   46.6676u 
 -622.60678m  699.8999m   46.6125u 
 -622.50678m  699.9000m   46.5575u 
 -622.40678m  699.9002m   46.5026u 
 -622.30678m  699.9003m   46.4478u 
 -622.20678m  699.9004m   46.3930u 
 -622.10678m  699.9005m   46.3383u 
 -622.00678m  699.9006m   46.2837u 
 -621.90678m  699.9007m   46.2291u 
 -621.80678m  699.9008m   46.1746u 
 -621.70678m  699.9010m   46.1202u 
 -621.60678m  699.9011m   46.0658u 
 -621.50678m  699.9012m   46.0115u 
 -621.40678m  699.9013m   45.9573u 
 -621.30678m  699.9014m   45.9031u 
 -621.20678m  699.9015m   45.8490u 
 -621.10678m  699.9016m   45.7950u 
 -621.00678m  699.9018m   45.7410u 
 -620.90678m  699.9019m   45.6871u 
 -620.80678m  699.9020m   45.6333u 
 -620.70678m  699.9021m   45.5795u 
 -620.60678m  699.9022m   45.5258u 
 -620.50678m  699.9023m   45.4722u 
 -620.40678m  699.9024m   45.4186u 
 -620.30678m  699.9025m   45.3651u 
 -620.20678m  699.9027m   45.3117u 
 -620.10678m  699.9028m   45.2583u 
 -620.00678m  699.9029m   45.2050u 
 -619.90678m  699.9030m   45.1517u 
 -619.80678m  699.9031m   45.0986u 
 -619.70678m  699.9032m   45.0455u 
 -619.60678m  699.9033m   44.9924u 
 -619.50678m  699.9034m   44.9394u 
 -619.40678m  699.9035m   44.8865u 
 -619.30678m  699.9037m   44.8337u 
 -619.20678m  699.9038m   44.7809u 
 -619.10678m  699.9039m   44.7282u 
 -619.00678m  699.9040m   44.6756u 
 -618.90678m  699.9041m   44.6230u 
 -618.80678m  699.9042m   44.5705u 
 -618.70678m  699.9043m   44.5180u 
 -618.60678m  699.9044m   44.4656u 
 -618.50678m  699.9045m   44.4133u 
 -618.40678m  699.9046m   44.3610u 
 -618.30678m  699.9048m   44.3088u 
 -618.20678m  699.9049m   44.2567u 
 -618.10678m  699.9050m   44.2046u 
 -618.00678m  699.9051m   44.1526u 
 -617.90678m  699.9052m   44.1007u 
 -617.80678m  699.9053m   44.0488u 
 -617.70678m  699.9054m   43.9970u 
 -617.60678m  699.9055m   43.9453u 
 -617.50678m  699.9056m   43.8936u 
 -617.40678m  699.9057m   43.8420u 
 -617.30678m  699.9058m   43.7904u 
 -617.20678m  699.9060m   43.7389u 
 -617.10678m  699.9061m   43.6875u 
 -617.00678m  699.9062m   43.6361u 
 -616.90678m  699.9063m   43.5848u 
 -616.80678m  699.9064m   43.5336u 
 -616.70678m  699.9065m   43.4824u 
 -616.60678m  699.9066m   43.4313u 
 -616.50678m  699.9067m   43.3803u 
 -616.40678m  699.9068m   43.3293u 
 -616.30678m  699.9069m   43.2784u 
 -616.20678m  699.9070m   43.2275u 
 -616.10678m  699.9071m   43.1767u 
 -616.00678m  699.9072m   43.1260u 
 -615.90678m  699.9073m   43.0753u 
 -615.80678m  699.9075m   43.0247u 
 -615.70678m  699.9076m   42.9742u 
 -615.60678m  699.9077m   42.9237u 
 -615.50678m  699.9078m   42.8733u 
 -615.40678m  699.9079m   42.8229u 
 -615.30678m  699.9080m   42.7726u 
 -615.20678m  699.9081m   42.7224u 
 -615.10678m  699.9082m   42.6722u 
 -615.00678m  699.9083m   42.6221u 
 -614.90678m  699.9084m   42.5720u 
 -614.80678m  699.9085m   42.5220u 
 -614.70678m  699.9086m   42.4721u 
 -614.60678m  699.9087m   42.4223u 
 -614.50678m  699.9088m   42.3725u 
 -614.40678m  699.9089m   42.3227u 
 -614.30678m  699.9090m   42.2730u 
 -614.20678m  699.9091m   42.2234u 
 -614.10678m  699.9092m   42.1739u 
 -614.00678m  699.9093m   42.1244u 
 -613.90678m  699.9094m   42.0749u 
 -613.80678m  699.9095m   42.0255u 
 -613.70678m  699.9097m   41.9762u 
 -613.60678m  699.9098m   41.9270u 
 -613.50678m  699.9099m   41.8778u 
 -613.40678m  699.9100m   41.8287u 
 -613.30678m  699.9101m   41.7796u 
 -613.20678m  699.9102m   41.7306u 
 -613.10678m  699.9103m   41.6816u 
 -613.00678m  699.9104m   41.6327u 
 -612.90678m  699.9105m   41.5839u 
 -612.80678m  699.9106m   41.5351u 
 -612.70678m  699.9107m   41.4864u 
 -612.60678m  699.9108m   41.4378u 
 -612.50678m  699.9109m   41.3892u 
 -612.40678m  699.9110m   41.3407u 
 -612.30678m  699.9111m   41.2922u 
 -612.20678m  699.9112m   41.2438u 
 -612.10678m  699.9113m   41.1954u 
 -612.00678m  699.9114m   41.1471u 
 -611.90678m  699.9115m   41.0989u 
 -611.80678m  699.9116m   41.0507u 
 -611.70678m  699.9117m   41.0026u 
 -611.60678m  699.9118m   40.9546u 
 -611.50678m  699.9119m   40.9066u 
 -611.40678m  699.9120m   40.8586u 
 -611.30678m  699.9121m   40.8108u 
 -611.20678m  699.9122m   40.7629u 
 -611.10678m  699.9123m   40.7152u 
 -611.00678m  699.9124m   40.6675u 
 -610.90678m  699.9125m   40.6198u 
 -610.80678m  699.9126m   40.5723u 
 -610.70678m  699.9127m   40.5247u 
 -610.60678m  699.9128m   40.4773u 
 -610.50678m  699.9129m   40.4299u 
 -610.40678m  699.9130m   40.3825u 
 -610.30678m  699.9131m   40.3352u 
 -610.20678m  699.9132m   40.2880u 
 -610.10678m  699.9133m   40.2408u 
 -610.00678m  699.9134m   40.1937u 
 -609.90678m  699.9135m   40.1466u 
 -609.80678m  699.9136m   40.0996u 
 -609.70678m  699.9137m   40.0527u 
 -609.60678m  699.9138m   40.0058u 
 -609.50678m  699.9139m   39.9590u 
 -609.40678m  699.9140m   39.9122u 
 -609.30678m  699.9141m   39.8655u 
 -609.20678m  699.9142m   39.8188u 
 -609.10678m  699.9143m   39.7722u 
 -609.00678m  699.9144m   39.7257u 
 -608.90678m  699.9145m   39.6792u 
 -608.80678m  699.9146m   39.6328u 
 -608.70678m  699.9147m   39.5864u 
 -608.60678m  699.9148m   39.5401u 
 -608.50678m  699.9149m   39.4939u 
 -608.40678m  699.9150m   39.4477u 
 -608.30678m  699.9151m   39.4015u 
 -608.20678m  699.9152m   39.3554u 
 -608.10678m  699.9153m   39.3094u 
 -608.00678m  699.9154m   39.2634u 
 -607.90678m  699.9154m   39.2175u 
 -607.80678m  699.9155m   39.1717u 
 -607.70678m  699.9156m   39.1259u 
 -607.60678m  699.9157m   39.0801u 
 -607.50678m  699.9158m   39.0344u 
 -607.40678m  699.9159m   38.9888u 
 -607.30678m  699.9160m   38.9432u 
 -607.20678m  699.9161m   38.8977u 
 -607.10678m  699.9162m   38.8522u 
 -607.00678m  699.9163m   38.8068u 
 -606.90678m  699.9164m   38.7615u 
 -606.80678m  699.9165m   38.7162u 
 -606.70678m  699.9166m   38.6709u 
 -606.60678m  699.9167m   38.6257u 
 -606.50678m  699.9168m   38.5806u 
 -606.40678m  699.9169m   38.5355u 
 -606.30678m  699.9170m   38.4905u 
 -606.20678m  699.9171m   38.4455u 
 -606.10678m  699.9172m   38.4006u 
 -606.00678m  699.9173m   38.3558u 
 -605.90678m  699.9174m   38.3110u 
 -605.80678m  699.9175m   38.2662u 
 -605.70678m  699.9175m   38.2215u 
 -605.60678m  699.9176m   38.1769u 
 -605.50678m  699.9177m   38.1323u 
 -605.40678m  699.9178m   38.0878u 
 -605.30678m  699.9179m   38.0433u 
 -605.20678m  699.9180m   37.9989u 
 -605.10678m  699.9181m   37.9545u 
 -605.00678m  699.9182m   37.9102u 
 -604.90678m  699.9183m   37.8660u 
 -604.80678m  699.9184m   37.8218u 
 -604.70678m  699.9185m   37.7776u 
 -604.60678m  699.9186m   37.7335u 
 -604.50678m  699.9187m   37.6895u 
 -604.40678m  699.9188m   37.6455u 
 -604.30678m  699.9189m   37.6016u 
 -604.20678m  699.9189m   37.5577u 
 -604.10678m  699.9190m   37.5139u 
 -604.00678m  699.9191m   37.4701u 
 -603.90678m  699.9192m   37.4264u 
 -603.80678m  699.9193m   37.3828u 
 -603.70678m  699.9194m   37.3392u 
 -603.60678m  699.9195m   37.2956u 
 -603.50678m  699.9196m   37.2521u 
 -603.40678m  699.9197m   37.2087u 
 -603.30678m  699.9198m   37.1653u 
 -603.20678m  699.9199m   37.1219u 
 -603.10678m  699.9200m   37.0786u 
 -603.00678m  699.9200m   37.0354u 
 -602.90678m  699.9201m   36.9922u 
 -602.80678m  699.9202m   36.9491u 
 -602.70678m  699.9203m   36.9060u 
 -602.60678m  699.9204m   36.8630u 
 -602.50678m  699.9205m   36.8200u 
 -602.40678m  699.9206m   36.7771u 
 -602.30678m  699.9207m   36.7342u 
 -602.20678m  699.9208m   36.6914u 
 -602.10678m  699.9209m   36.6487u 
 -602.00678m  699.9209m   36.6060u 
 -601.90678m  699.9210m   36.5633u 
 -601.80678m  699.9211m   36.5207u 
 -601.70678m  699.9212m   36.4782u 
 -601.60678m  699.9213m   36.4357u 
 -601.50678m  699.9214m   36.3932u 
 -601.40678m  699.9215m   36.3508u 
 -601.30678m  699.9216m   36.3085u 
 -601.20678m  699.9217m   36.2662u 
 -601.10678m  699.9218m   36.2239u 
 -601.00678m  699.9218m   36.1818u 
 -600.90678m  699.9219m   36.1396u 
 -600.80678m  699.9220m   36.0975u 
 -600.70678m  699.9221m   36.0555u 
 -600.60678m  699.9222m   36.0135u 
 -600.50678m  699.9223m   35.9716u 
 -600.40678m  699.9224m   35.9297u 
 -600.30678m  699.9225m   35.8879u 
 -600.20678m  699.9225m   35.8461u 
 -600.10678m  699.9226m   35.8044u 
 -600.00678m  699.9227m   35.7627u 
 -599.90678m  699.9228m   35.7211u 
 -599.80678m  699.9229m   35.6795u 
 -599.70678m  699.9230m   35.6380u 
 -599.60678m  699.9231m   35.5965u 
 -599.50678m  699.9232m   35.5551u 
 -599.40678m  699.9233m   35.5137u 
 -599.30678m  699.9233m   35.4724u 
 -599.20678m  699.9234m   35.4312u 
 -599.10678m  699.9235m   35.3899u 
 -599.00678m  699.9236m   35.3488u 
 -598.90678m  699.9237m   35.3077u 
 -598.80678m  699.9238m   35.2666u 
 -598.70678m  699.9239m   35.2256u 
 -598.60678m  699.9239m   35.1846u 
 -598.50678m  699.9240m   35.1437u 
 -598.40678m  699.9241m   35.1028u 
 -598.30678m  699.9242m   35.0620u 
 -598.20678m  699.9243m   35.0213u 
 -598.10678m  699.9244m   34.9805u 
 -598.00678m  699.9245m   34.9399u 
 -597.90678m  699.9245m   34.8993u 
 -597.80678m  699.9246m   34.8587u 
 -597.70678m  699.9247m   34.8182u 
 -597.60678m  699.9248m   34.7777u 
 -597.50678m  699.9249m   34.7373u 
 -597.40678m  699.9250m   34.6969u 
 -597.30678m  699.9251m   34.6566u 
 -597.20678m  699.9251m   34.6163u 
 -597.10678m  699.9252m   34.5761u 
 -597.00678m  699.9253m   34.5359u 
 -596.90678m  699.9254m   34.4958u 
 -596.80678m  699.9255m   34.4558u 
 -596.70678m  699.9256m   34.4157u 
 -596.60678m  699.9257m   34.3758u 
 -596.50678m  699.9257m   34.3358u 
 -596.40678m  699.9258m   34.2959u 
 -596.30678m  699.9259m   34.2561u 
 -596.20678m  699.9260m   34.2163u 
 -596.10678m  699.9261m   34.1766u 
 -596.00678m  699.9262m   34.1369u 
 -595.90678m  699.9262m   34.0973u 
 -595.80678m  699.9263m   34.0577u 
 -595.70678m  699.9264m   34.0182u 
 -595.60678m  699.9265m   33.9787u 
 -595.50678m  699.9266m   33.9392u 
 -595.40678m  699.9267m   33.8998u 
 -595.30678m  699.9267m   33.8605u 
 -595.20678m  699.9268m   33.8212u 
 -595.10678m  699.9269m   33.7819u 
 -595.00678m  699.9270m   33.7427u 
 -594.90678m  699.9271m   33.7036u 
 -594.80678m  699.9272m   33.6645u 
 -594.70678m  699.9272m   33.6254u 
 -594.60678m  699.9273m   33.5864u 
 -594.50678m  699.9274m   33.5475u 
 -594.40678m  699.9275m   33.5085u 
 -594.30678m  699.9276m   33.4697u 
 -594.20678m  699.9276m   33.4309u 
 -594.10678m  699.9277m   33.3921u 
 -594.00678m  699.9278m   33.3534u 
 -593.90678m  699.9279m   33.3147u 
 -593.80678m  699.9280m   33.2760u 
 -593.70678m  699.9281m   33.2375u 
 -593.60678m  699.9281m   33.1989u 
 -593.50678m  699.9282m   33.1604u 
 -593.40678m  699.9283m   33.1220u 
 -593.30678m  699.9284m   33.0836u 
 -593.20678m  699.9285m   33.0452u 
 -593.10678m  699.9285m   33.0069u 
 -593.00678m  699.9286m   32.9687u 
 -592.90678m  699.9287m   32.9305u 
 -592.80678m  699.9288m   32.8923u 
 -592.70678m  699.9289m   32.8542u 
 -592.60678m  699.9289m   32.8161u 
 -592.50678m  699.9290m   32.7781u 
 -592.40678m  699.9291m   32.7401u 
 -592.30678m  699.9292m   32.7022u 
 -592.20678m  699.9293m   32.6643u 
 -592.10678m  699.9293m   32.6265u 
 -592.00678m  699.9294m   32.5887u 
 -591.90678m  699.9295m   32.5509u 
 -591.80678m  699.9296m   32.5132u 
 -591.70678m  699.9297m   32.4756u 
 -591.60678m  699.9297m   32.4380u 
 -591.50678m  699.9298m   32.4004u 
 -591.40678m  699.9299m   32.3629u 
 -591.30678m  699.9300m   32.3254u 
 -591.20678m  699.9301m   32.2880u 
 -591.10678m  699.9301m   32.2506u 
 -591.00678m  699.9302m   32.2133u 
 -590.90678m  699.9303m   32.1760u 
 -590.80678m  699.9304m   32.1388u 
 -590.70678m  699.9305m   32.1016u 
 -590.60678m  699.9305m   32.0644u 
 -590.50678m  699.9306m   32.0273u 
 -590.40678m  699.9307m   31.9902u 
 -590.30678m  699.9308m   31.9532u 
 -590.20678m  699.9308m   31.9163u 
 -590.10678m  699.9309m   31.8793u 
 -590.00678m  699.9310m   31.8424u 
 -589.90678m  699.9311m   31.8056u 
 -589.80678m  699.9312m   31.7688u 
 -589.70678m  699.9312m   31.7321u 
 -589.60678m  699.9313m   31.6954u 
 -589.50678m  699.9314m   31.6587u 
 -589.40678m  699.9315m   31.6221u 
 -589.30678m  699.9315m   31.5855u 
 -589.20678m  699.9316m   31.5490u 
 -589.10678m  699.9317m   31.5125u 
 -589.00678m  699.9318m   31.4761u 
 -588.90678m  699.9319m   31.4397u 
 -588.80678m  699.9319m   31.4034u 
 -588.70678m  699.9320m   31.3670u 
 -588.60678m  699.9321m   31.3308u 
 -588.50678m  699.9322m   31.2946u 
 -588.40678m  699.9322m   31.2584u 
 -588.30678m  699.9323m   31.2223u 
 -588.20678m  699.9324m   31.1862u 
 -588.10678m  699.9325m   31.1502u 
 -588.00678m  699.9325m   31.1142u 
 -587.90678m  699.9326m   31.0782u 
 -587.80678m  699.9327m   31.0423u 
 -587.70678m  699.9328m   31.0064u 
 -587.60678m  699.9328m   30.9706u 
 -587.50678m  699.9329m   30.9349u 
 -587.40678m  699.9330m   30.8991u 
 -587.30678m  699.9331m   30.8634u 
 -587.20678m  699.9332m   30.8278u 
 -587.10678m  699.9332m   30.7922u 
 -587.00678m  699.9333m   30.7566u 
 -586.90678m  699.9334m   30.7211u 
 -586.80678m  699.9335m   30.6856u 
 -586.70678m  699.9335m   30.6502u 
 -586.60678m  699.9336m   30.6148u 
 -586.50678m  699.9337m   30.5795u 
 -586.40678m  699.9338m   30.5442u 
 -586.30678m  699.9338m   30.5089u 
 -586.20678m  699.9339m   30.4737u 
 -586.10678m  699.9340m   30.4385u 
 -586.00678m  699.9341m   30.4034u 
 -585.90678m  699.9341m   30.3683u 
 -585.80678m  699.9342m   30.3333u 
 -585.70678m  699.9343m   30.2983u 
 -585.60678m  699.9343m   30.2633u 
 -585.50678m  699.9344m   30.2284u 
 -585.40678m  699.9345m   30.1935u 
 -585.30678m  699.9346m   30.1587u 
 -585.20678m  699.9346m   30.1239u 
 -585.10678m  699.9347m   30.0892u 
 -585.00678m  699.9348m   30.0545u 
 -584.90678m  699.9349m   30.0198u 
 -584.80678m  699.9349m   29.9852u 
 -584.70678m  699.9350m   29.9506u 
 -584.60678m  699.9351m   29.9161u 
 -584.50678m  699.9352m   29.8816u 
 -584.40678m  699.9352m   29.8471u 
 -584.30678m  699.9353m   29.8127u 
 -584.20678m  699.9354m   29.7783u 
 -584.10678m  699.9354m   29.7440u 
 -584.00678m  699.9355m   29.7097u 
 -583.90678m  699.9356m   29.6755u 
 -583.80678m  699.9357m   29.6413u 
 -583.70678m  699.9357m   29.6071u 
 -583.60678m  699.9358m   29.5730u 
 -583.50678m  699.9359m   29.5389u 
 -583.40678m  699.9360m   29.5049u 
 -583.30678m  699.9360m   29.4709u 
 -583.20678m  699.9361m   29.4369u 
 -583.10678m  699.9362m   29.4030u 
 -583.00678m  699.9362m   29.3692u 
 -582.90678m  699.9363m   29.3353u 
 -582.80678m  699.9364m   29.3015u 
 -582.70678m  699.9365m   29.2678u 
 -582.60678m  699.9365m   29.2341u 
 -582.50678m  699.9366m   29.2004u 
 -582.40678m  699.9367m   29.1668u 
 -582.30678m  699.9367m   29.1332u 
 -582.20678m  699.9368m   29.0997u 
 -582.10678m  699.9369m   29.0662u 
 -582.00678m  699.9370m   29.0327u 
 -581.90678m  699.9370m   28.9993u 
 -581.80678m  699.9371m   28.9659u 
 -581.70678m  699.9372m   28.9325u 
 -581.60678m  699.9372m   28.8992u 
 -581.50678m  699.9373m   28.8660u 
 -581.40678m  699.9374m   28.8328u 
 -581.30678m  699.9374m   28.7996u 
 -581.20678m  699.9375m   28.7664u 
 -581.10678m  699.9376m   28.7333u 
 -581.00678m  699.9377m   28.7003u 
 -580.90678m  699.9377m   28.6673u 
 -580.80678m  699.9378m   28.6343u 
 -580.70678m  699.9379m   28.6013u 
 -580.60678m  699.9379m   28.5684u 
 -580.50678m  699.9380m   28.5356u 
 -580.40678m  699.9381m   28.5028u 
 -580.30678m  699.9381m   28.4700u 
 -580.20678m  699.9382m   28.4372u 
 -580.10678m  699.9383m   28.4045u 
 -580.00678m  699.9384m   28.3719u 
 -579.90678m  699.9384m   28.3393u 
 -579.80678m  699.9385m   28.3067u 
 -579.70678m  699.9386m   28.2741u 
 -579.60678m  699.9386m   28.2416u 
 -579.50678m  699.9387m   28.2092u 
 -579.40678m  699.9388m   28.1768u 
 -579.30678m  699.9388m   28.1444u 
 -579.20678m  699.9389m   28.1120u 
 -579.10678m  699.9390m   28.0797u 
 -579.00678m  699.9390m   28.0474u 
 -578.90678m  699.9391m   28.0152u 
 -578.80678m  699.9392m   27.9830u 
 -578.70678m  699.9392m   27.9509u 
 -578.60678m  699.9393m   27.9188u 
 -578.50678m  699.9394m   27.8867u 
 -578.40678m  699.9395m   27.8547u 
 -578.30678m  699.9395m   27.8227u 
 -578.20678m  699.9396m   27.7907u 
 -578.10678m  699.9397m   27.7588u 
 -578.00678m  699.9397m   27.7269u 
 -577.90678m  699.9398m   27.6951u 
 -577.80678m  699.9399m   27.6633u 
 -577.70678m  699.9399m   27.6315u 
 -577.60678m  699.9400m   27.5998u 
 -577.50678m  699.9401m   27.5681u 
 -577.40678m  699.9401m   27.5365u 
 -577.30678m  699.9402m   27.5048u 
 -577.20678m  699.9403m   27.4733u 
 -577.10678m  699.9403m   27.4417u 
 -577.00678m  699.9404m   27.4102u 
 -576.90678m  699.9405m   27.3788u 
 -576.80678m  699.9405m   27.3474u 
 -576.70678m  699.9406m   27.3160u 
 -576.60678m  699.9407m   27.2846u 
 -576.50678m  699.9407m   27.2533u 
 -576.40678m  699.9408m   27.2221u 
 -576.30678m  699.9409m   27.1908u 
 -576.20678m  699.9409m   27.1597u 
 -576.10678m  699.9410m   27.1285u 
 -576.00678m  699.9411m   27.0974u 
 -575.90678m  699.9411m   27.0663u 
 -575.80678m  699.9412m   27.0353u 
 -575.70678m  699.9413m   27.0043u 
 -575.60678m  699.9413m   26.9733u 
 -575.50678m  699.9414m   26.9424u 
 -575.40678m  699.9415m   26.9115u 
 -575.30678m  699.9415m   26.8806u 
 -575.20678m  699.9416m   26.8498u 
 -575.10678m  699.9417m   26.8190u 
 -575.00678m  699.9417m   26.7883u 
 -574.90678m  699.9418m   26.7576u 
 -574.80678m  699.9418m   26.7269u 
 -574.70678m  699.9419m   26.6963u 
 -574.60678m  699.9420m   26.6657u 
 -574.50678m  699.9420m   26.6351u 
 -574.40678m  699.9421m   26.6046u 
 -574.30678m  699.9422m   26.5741u 
 -574.20678m  699.9422m   26.5437u 
 -574.10678m  699.9423m   26.5133u 
 -574.00678m  699.9424m   26.4829u 
 -573.90678m  699.9424m   26.4526u 
 -573.80678m  699.9425m   26.4223u 
 -573.70678m  699.9426m   26.3920u 
 -573.60678m  699.9426m   26.3618u 
 -573.50678m  699.9427m   26.3316u 
 -573.40678m  699.9428m   26.3014u 
 -573.30678m  699.9428m   26.2713u 
 -573.20678m  699.9429m   26.2412u 
 -573.10678m  699.9429m   26.2112u 
 -573.00678m  699.9430m   26.1812u 
 -572.90678m  699.9431m   26.1512u 
 -572.80678m  699.9431m   26.1213u 
 -572.70678m  699.9432m   26.0914u 
 -572.60678m  699.9433m   26.0615u 
 -572.50678m  699.9433m   26.0317u 
 -572.40678m  699.9434m   26.0019u 
 -572.30678m  699.9435m   25.9721u 
 -572.20678m  699.9435m   25.9424u 
 -572.10678m  699.9436m   25.9127u 
 -572.00678m  699.9436m   25.8831u 
 -571.90678m  699.9437m   25.8535u 
 -571.80678m  699.9438m   25.8239u 
 -571.70678m  699.9438m   25.7944u 
 -571.60678m  699.9439m   25.7649u 
 -571.50678m  699.9440m   25.7354u 
 -571.40678m  699.9440m   25.7060u 
 -571.30678m  699.9441m   25.6766u 
 -571.20678m  699.9441m   25.6472u 
 -571.10678m  699.9442m   25.6179u 
 -571.00678m  699.9443m   25.5886u 
 -570.90678m  699.9443m   25.5593u 
 -570.80678m  699.9444m   25.5301u 
 -570.70678m  699.9445m   25.5009u 
 -570.60678m  699.9445m   25.4718u 
 -570.50678m  699.9446m   25.4426u 
 -570.40678m  699.9446m   25.4136u 
 -570.30678m  699.9447m   25.3845u 
 -570.20678m  699.9448m   25.3555u 
 -570.10678m  699.9448m   25.3265u 
 -570.00678m  699.9449m   25.2976u 
 -569.90678m  699.9449m   25.2687u 
 -569.80678m  699.9450m   25.2398u 
 -569.70678m  699.9451m   25.2110u 
 -569.60678m  699.9451m   25.1822u 
 -569.50678m  699.9452m   25.1534u 
 -569.40678m  699.9453m   25.1247u 
 -569.30678m  699.9453m   25.0960u 
 -569.20678m  699.9454m   25.0673u 
 -569.10678m  699.9454m   25.0387u 
 -569.00678m  699.9455m   25.0101u 
 -568.90678m  699.9456m   24.9815u 
 -568.80678m  699.9456m   24.9530u 
 -568.70678m  699.9457m   24.9245u 
 -568.60678m  699.9457m   24.8961u 
 -568.50678m  699.9458m   24.8677u 
 -568.40678m  699.9459m   24.8393u 
 -568.30678m  699.9459m   24.8109u 
 -568.20678m  699.9460m   24.7826u 
 -568.10678m  699.9460m   24.7543u 
 -568.00678m  699.9461m   24.7261u 
 -567.90678m  699.9462m   24.6978u 
 -567.80678m  699.9462m   24.6697u 
 -567.70678m  699.9463m   24.6415u 
 -567.60678m  699.9463m   24.6134u 
 -567.50678m  699.9464m   24.5853u 
 -567.40678m  699.9465m   24.5573u 
 -567.30678m  699.9465m   24.5292u 
 -567.20678m  699.9466m   24.5013u 
 -567.10678m  699.9466m   24.4733u 
 -567.00678m  699.9467m   24.4454u 
 -566.90678m  699.9468m   24.4175u 
 -566.80678m  699.9468m   24.3897u 
 -566.70678m  699.9469m   24.3619u 
 -566.60678m  699.9469m   24.3341u 
 -566.50678m  699.9470m   24.3063u 
 -566.40678m  699.9471m   24.2786u 
 -566.30678m  699.9471m   24.2510u 
 -566.20678m  699.9472m   24.2233u 
 -566.10678m  699.9472m   24.1957u 
 -566.00678m  699.9473m   24.1681u 
 -565.90678m  699.9474m   24.1406u 
 -565.80678m  699.9474m   24.1131u 
 -565.70678m  699.9475m   24.0856u 
 -565.60678m  699.9475m   24.0581u 
 -565.50678m  699.9476m   24.0307u 
 -565.40678m  699.9476m   24.0033u 
 -565.30678m  699.9477m   23.9760u 
 -565.20678m  699.9478m   23.9487u 
 -565.10678m  699.9478m   23.9214u 
 -565.00678m  699.9479m   23.8942u 
 -564.90678m  699.9479m   23.8669u 
 -564.80678m  699.9480m   23.8398u 
 -564.70678m  699.9481m   23.8126u 
 -564.60678m  699.9481m   23.7855u 
 -564.50678m  699.9482m   23.7584u 
 -564.40678m  699.9482m   23.7314u 
 -564.30678m  699.9483m   23.7043u 
 -564.20678m  699.9483m   23.6773u 
 -564.10678m  699.9484m   23.6504u 
 -564.00678m  699.9485m   23.6235u 
 -563.90678m  699.9485m   23.5966u 
 -563.80678m  699.9486m   23.5697u 
 -563.70678m  699.9486m   23.5429u 
 -563.60678m  699.9487m   23.5161u 
 -563.50678m  699.9487m   23.4893u 
 -563.40678m  699.9488m   23.4626u 
 -563.30678m  699.9489m   23.4359u 
 -563.20678m  699.9489m   23.4092u 
 -563.10678m  699.9490m   23.3826u 
 -563.00678m  699.9490m   23.3560u 
 -562.90678m  699.9491m   23.3294u 
 -562.80678m  699.9491m   23.3029u 
 -562.70678m  699.9492m   23.2764u 
 -562.60678m  699.9493m   23.2499u 
 -562.50678m  699.9493m   23.2235u 
 -562.40678m  699.9494m   23.1971u 
 -562.30678m  699.9494m   23.1707u 
 -562.20678m  699.9495m   23.1444u 
 -562.10678m  699.9495m   23.1180u 
 -562.00678m  699.9496m   23.0918u 
 -561.90678m  699.9496m   23.0655u 
 -561.80678m  699.9497m   23.0393u 
 -561.70678m  699.9498m   23.0131u 
 -561.60678m  699.9498m   22.9869u 
 -561.50678m  699.9499m   22.9608u 
 -561.40678m  699.9499m   22.9347u 
 -561.30678m  699.9500m   22.9087u 
 -561.20678m  699.9500m   22.8826u 
 -561.10678m  699.9501m   22.8566u 
 -561.00678m  699.9501m   22.8307u 
 -560.90678m  699.9502m   22.8047u 
 -560.80678m  699.9503m   22.7788u 
 -560.70678m  699.9503m   22.7529u 
 -560.60678m  699.9504m   22.7271u 
 -560.50678m  699.9504m   22.7013u 
 -560.40678m  699.9505m   22.6755u 
 -560.30678m  699.9505m   22.6497u 
 -560.20678m  699.9506m   22.6240u 
 -560.10678m  699.9506m   22.5983u 
 -560.00678m  699.9507m   22.5727u 
 -559.90678m  699.9507m   22.5470u 
 -559.80678m  699.9508m   22.5214u 
 -559.70678m  699.9509m   22.4959u 
 -559.60678m  699.9509m   22.4703u 
 -559.50678m  699.9510m   22.4448u 
 -559.40678m  699.9510m   22.4194u 
 -559.30678m  699.9511m   22.3939u 
 -559.20678m  699.9511m   22.3685u 
 -559.10678m  699.9512m   22.3431u 
 -559.00678m  699.9512m   22.3178u 
 -558.90678m  699.9513m   22.2924u 
 -558.80678m  699.9513m   22.2671u 
 -558.70678m  699.9514m   22.2419u 
 -558.60678m  699.9515m   22.2166u 
 -558.50678m  699.9515m   22.1914u 
 -558.40678m  699.9516m   22.1663u 
 -558.30678m  699.9516m   22.1411u 
 -558.20678m  699.9517m   22.1160u 
 -558.10678m  699.9517m   22.0909u 
 -558.00678m  699.9518m   22.0659u 
 -557.90678m  699.9518m   22.0409u 
 -557.80678m  699.9519m   22.0159u 
 -557.70678m  699.9519m   21.9909u 
 -557.60678m  699.9520m   21.9660u 
 -557.50678m  699.9520m   21.9411u 
 -557.40678m  699.9521m   21.9162u 
 -557.30678m  699.9521m   21.8914u 
 -557.20678m  699.9522m   21.8666u 
 -557.10678m  699.9523m   21.8418u 
 -557.00678m  699.9523m   21.8170u 
 -556.90678m  699.9524m   21.7923u 
 -556.80678m  699.9524m   21.7676u 
 -556.70678m  699.9525m   21.7429u 
 -556.60678m  699.9525m   21.7183u 
 -556.50678m  699.9526m   21.6937u 
 -556.40678m  699.9526m   21.6691u 
 -556.30678m  699.9527m   21.6446u 
 -556.20678m  699.9527m   21.6201u 
 -556.10678m  699.9528m   21.5956u 
 -556.00678m  699.9528m   21.5711u 
 -555.90678m  699.9529m   21.5467u 
 -555.80678m  699.9529m   21.5223u 
 -555.70678m  699.9530m   21.4979u 
 -555.60678m  699.9530m   21.4736u 
 -555.50678m  699.9531m   21.4493u 
 -555.40678m  699.9531m   21.4250u 
 -555.30678m  699.9532m   21.4007u 
 -555.20678m  699.9533m   21.3765u 
 -555.10678m  699.9533m   21.3523u 
 -555.00678m  699.9534m   21.3281u 
 -554.90678m  699.9534m   21.3040u 
 -554.80678m  699.9535m   21.2799u 
 -554.70678m  699.9535m   21.2558u 
 -554.60678m  699.9536m   21.2318u 
 -554.50678m  699.9536m   21.2077u 
 -554.40678m  699.9537m   21.1838u 
 -554.30678m  699.9537m   21.1598u 
 -554.20678m  699.9538m   21.1359u 
 -554.10678m  699.9538m   21.1119u 
 -554.00678m  699.9539m   21.0881u 
 -553.90678m  699.9539m   21.0642u 
 -553.80678m  699.9540m   21.0404u 
 -553.70678m  699.9540m   21.0166u 
 -553.60678m  699.9541m   20.9928u 
 -553.50678m  699.9541m   20.9691u 
 -553.40678m  699.9542m   20.9454u 
 -553.30678m  699.9542m   20.9217u 
 -553.20678m  699.9543m   20.8981u 
 -553.10678m  699.9543m   20.8744u 
 -553.00678m  699.9544m   20.8508u 
 -552.90678m  699.9544m   20.8273u 
 -552.80678m  699.9545m   20.8037u 
 -552.70678m  699.9545m   20.7802u 
 -552.60678m  699.9546m   20.7567u 
 -552.50678m  699.9546m   20.7333u 
 -552.40678m  699.9547m   20.7099u 
 -552.30678m  699.9547m   20.6865u 
 -552.20678m  699.9548m   20.6631u 
 -552.10678m  699.9548m   20.6397u 
 -552.00678m  699.9549m   20.6164u 
 -551.90678m  699.9549m   20.5931u 
 -551.80678m  699.9550m   20.5699u 
 -551.70678m  699.9550m   20.5467u 
 -551.60678m  699.9551m   20.5234u 
 -551.50678m  699.9551m   20.5003u 
 -551.40678m  699.9552m   20.4771u 
 -551.30678m  699.9552m   20.4540u 
 -551.20678m  699.9553m   20.4309u 
 -551.10678m  699.9553m   20.4078u 
 -551.00678m  699.9554m   20.3848u 
 -550.90678m  699.9554m   20.3618u 
 -550.80678m  699.9555m   20.3388u 
 -550.70678m  699.9555m   20.3159u 
 -550.60678m  699.9556m   20.2929u 
 -550.50678m  699.9556m   20.2700u 
 -550.40678m  699.9557m   20.2472u 
 -550.30678m  699.9557m   20.2243u 
 -550.20678m  699.9558m   20.2015u 
 -550.10678m  699.9558m   20.1787u 
 -550.00678m  699.9559m   20.1559u 
 -549.90678m  699.9559m   20.1332u 
 -549.80678m  699.9560m   20.1105u 
 -549.70678m  699.9560m   20.0878u 
 -549.60678m  699.9561m   20.0652u 
 -549.50678m  699.9561m   20.0425u 
 -549.40678m  699.9562m   20.0199u 
 -549.30678m  699.9562m   19.9973u 
 -549.20678m  699.9562m   19.9748u 
 -549.10678m  699.9563m   19.9523u 
 -549.00678m  699.9563m   19.9298u 
 -548.90678m  699.9564m   19.9073u 
 -548.80678m  699.9564m   19.8849u 
 -548.70678m  699.9565m   19.8625u 
 -548.60678m  699.9565m   19.8401u 
 -548.50678m  699.9566m   19.8177u 
 -548.40678m  699.9566m   19.7954u 
 -548.30678m  699.9567m   19.7731u 
 -548.20678m  699.9567m   19.7508u 
 -548.10678m  699.9568m   19.7285u 
 -548.00678m  699.9568m   19.7063u 
 -547.90678m  699.9569m   19.6841u 
 -547.80678m  699.9569m   19.6619u 
 -547.70678m  699.9570m   19.6398u 
 -547.60678m  699.9570m   19.6177u 
 -547.50678m  699.9571m   19.5956u 
 -547.40678m  699.9571m   19.5735u 
 -547.30678m  699.9572m   19.5515u 
 -547.20678m  699.9572m   19.5294u 
 -547.10678m  699.9573m   19.5075u 
 -547.00678m  699.9573m   19.4855u 
 -546.90678m  699.9573m   19.4636u 
 -546.80678m  699.9574m   19.4416u 
 -546.70678m  699.9574m   19.4198u 
 -546.60678m  699.9575m   19.3979u 
 -546.50678m  699.9575m   19.3761u 
 -546.40678m  699.9576m   19.3543u 
 -546.30678m  699.9576m   19.3325u 
 -546.20678m  699.9577m   19.3107u 
 -546.10678m  699.9577m   19.2890u 
 -546.00678m  699.9578m   19.2673u 
 -545.90678m  699.9578m   19.2456u 
 -545.80678m  699.9579m   19.2240u 
 -545.70678m  699.9579m   19.2023u 
 -545.60678m  699.9580m   19.1807u 
 -545.50678m  699.9580m   19.1592u 
 -545.40678m  699.9580m   19.1376u 
 -545.30678m  699.9581m   19.1161u 
 -545.20678m  699.9581m   19.0946u 
 -545.10678m  699.9582m   19.0731u 
 -545.00678m  699.9582m   19.0517u 
 -544.90678m  699.9583m   19.0303u 
 -544.80678m  699.9583m   19.0089u 
 -544.70678m  699.9584m   18.9875u 
 -544.60678m  699.9584m   18.9661u 
 -544.50678m  699.9585m   18.9448u 
 -544.40678m  699.9585m   18.9235u 
 -544.30678m  699.9585m   18.9023u 
 -544.20678m  699.9586m   18.8810u 
 -544.10678m  699.9586m   18.8598u 
 -544.00678m  699.9587m   18.8386u 
 -543.90678m  699.9587m   18.8174u 
 -543.80678m  699.9588m   18.7963u 
 -543.70678m  699.9588m   18.7752u 
 -543.60678m  699.9589m   18.7541u 
 -543.50678m  699.9589m   18.7330u 
 -543.40678m  699.9590m   18.7120u 
 -543.30678m  699.9590m   18.6910u 
 -543.20678m  699.9590m   18.6700u 
 -543.10678m  699.9591m   18.6490u 
 -543.00678m  699.9591m   18.6281u 
 -542.90678m  699.9592m   18.6072u 
 -542.80678m  699.9592m   18.5863u 
 -542.70678m  699.9593m   18.5654u 
 -542.60678m  699.9593m   18.5445u 
 -542.50678m  699.9594m   18.5237u 
 -542.40678m  699.9594m   18.5029u 
 -542.30678m  699.9594m   18.4822u 
 -542.20678m  699.9595m   18.4614u 
 -542.10678m  699.9595m   18.4407u 
 -542.00678m  699.9596m   18.4200u 
 -541.90678m  699.9596m   18.3993u 
 -541.80678m  699.9597m   18.3787u 
 -541.70678m  699.9597m   18.3581u 
 -541.60678m  699.9598m   18.3375u 
 -541.50678m  699.9598m   18.3169u 
 -541.40678m  699.9598m   18.2964u 
 -541.30678m  699.9599m   18.2758u 
 -541.20678m  699.9599m   18.2553u 
 -541.10678m  699.9600m   18.2349u 
 -541.00678m  699.9600m   18.2144u 
 -540.90678m  699.9601m   18.1940u 
 -540.80678m  699.9601m   18.1736u 
 -540.70678m  699.9602m   18.1532u 
 -540.60678m  699.9602m   18.1329u 
 -540.50678m  699.9602m   18.1125u 
 -540.40678m  699.9603m   18.0922u 
 -540.30678m  699.9603m   18.0720u 
 -540.20678m  699.9604m   18.0517u 
 -540.10678m  699.9604m   18.0315u 
 -540.00678m  699.9605m   18.0113u 
 -539.90678m  699.9605m   17.9911u 
 -539.80678m  699.9605m   17.9709u 
 -539.70678m  699.9606m   17.9508u 
 -539.60678m  699.9606m   17.9307u 
 -539.50678m  699.9607m   17.9106u 
 -539.40678m  699.9607m   17.8905u 
 -539.30678m  699.9608m   17.8705u 
 -539.20678m  699.9608m   17.8505u 
 -539.10678m  699.9608m   17.8305u 
 -539.00678m  699.9609m   17.8105u 
 -538.90678m  699.9609m   17.7906u 
 -538.80678m  699.9610m   17.7706u 
 -538.70678m  699.9610m   17.7507u 
 -538.60678m  699.9611m   17.7309u 
 -538.50678m  699.9611m   17.7110u 
 -538.40678m  699.9611m   17.6912u 
 -538.30678m  699.9612m   17.6714u 
 -538.20678m  699.9612m   17.6516u 
 -538.10678m  699.9613m   17.6318u 
 -538.00678m  699.9613m   17.6121u 
 -537.90678m  699.9614m   17.5924u 
 -537.80678m  699.9614m   17.5727u 
 -537.70678m  699.9614m   17.5530u 
 -537.60678m  699.9615m   17.5334u 
 -537.50678m  699.9615m   17.5138u 
 -537.40678m  699.9616m   17.4942u 
 -537.30678m  699.9616m   17.4746u 
 -537.20678m  699.9617m   17.4551u 
 -537.10678m  699.9617m   17.4356u 
 -537.00678m  699.9617m   17.4161u 
 -536.90678m  699.9618m   17.3966u 
 -536.80678m  699.9618m   17.3771u 
 -536.70678m  699.9619m   17.3577u 
 -536.60678m  699.9619m   17.3383u 
 -536.50678m  699.9619m   17.3189u 
 -536.40678m  699.9620m   17.2995u 
 -536.30678m  699.9620m   17.2802u 
 -536.20678m  699.9621m   17.2609u 
 -536.10678m  699.9621m   17.2416u 
 -536.00678m  699.9622m   17.2223u 
 -535.90678m  699.9622m   17.2031u 
 -535.80678m  699.9622m   17.1838u 
 -535.70678m  699.9623m   17.1646u 
 -535.60678m  699.9623m   17.1455u 
 -535.50678m  699.9624m   17.1263u 
 -535.40678m  699.9624m   17.1072u 
 -535.30678m  699.9624m   17.0881u 
 -535.20678m  699.9625m   17.0690u 
 -535.10678m  699.9625m   17.0499u 
 -535.00678m  699.9626m   17.0309u 
 -534.90678m  699.9626m   17.0118u 
 -534.80678m  699.9626m   16.9928u 
 -534.70678m  699.9627m   16.9739u 
 -534.60678m  699.9627m   16.9549u 
 -534.50678m  699.9628m   16.9360u 
 -534.40678m  699.9628m   16.9171u 
 -534.30678m  699.9629m   16.8982u 
 -534.20678m  699.9629m   16.8793u 
 -534.10678m  699.9629m   16.8605u 
 -534.00678m  699.9630m   16.8417u 
 -533.90678m  699.9630m   16.8229u 
 -533.80678m  699.9631m   16.8041u 
 -533.70678m  699.9631m   16.7853u 
 -533.60678m  699.9631m   16.7666u 
 -533.50678m  699.9632m   16.7479u 
 -533.40678m  699.9632m   16.7292u 
 -533.30678m  699.9633m   16.7105u 
 -533.20678m  699.9633m   16.6919u 
 -533.10678m  699.9633m   16.6733u 
 -533.00678m  699.9634m   16.6547u 
 -532.90678m  699.9634m   16.6361u 
 -532.80678m  699.9635m   16.6175u 
 -532.70678m  699.9635m   16.5990u 
 -532.60678m  699.9635m   16.5805u 
 -532.50678m  699.9636m   16.5620u 
 -532.40678m  699.9636m   16.5436u 
 -532.30678m  699.9637m   16.5251u 
 -532.20678m  699.9637m   16.5067u 
 -532.10678m  699.9637m   16.4883u 
 -532.00678m  699.9638m   16.4699u 
 -531.90678m  699.9638m   16.4515u 
 -531.80678m  699.9639m   16.4332u 
 -531.70678m  699.9639m   16.4149u 
 -531.60678m  699.9639m   16.3966u 
 -531.50678m  699.9640m   16.3783u 
 -531.40678m  699.9640m   16.3601u 
 -531.30678m  699.9640m   16.3419u 
 -531.20678m  699.9641m   16.3237u 
 -531.10678m  699.9641m   16.3055u 
 -531.00678m  699.9642m   16.2873u 
 -530.90678m  699.9642m   16.2692u 
 -530.80678m  699.9642m   16.2510u 
 -530.70678m  699.9643m   16.2329u 
 -530.60678m  699.9643m   16.2149u 
 -530.50678m  699.9644m   16.1968u 
 -530.40678m  699.9644m   16.1788u 
 -530.30678m  699.9644m   16.1608u 
 -530.20678m  699.9645m   16.1428u 
 -530.10678m  699.9645m   16.1248u 
 -530.00678m  699.9646m   16.1069u 
 -529.90678m  699.9646m   16.0889u 
 -529.80678m  699.9646m   16.0710u 
 -529.70678m  699.9647m   16.0531u 
 -529.60678m  699.9647m   16.0353u 
 -529.50678m  699.9647m   16.0174u 
 -529.40678m  699.9648m   15.9996u 
 -529.30678m  699.9648m   15.9818u 
 -529.20678m  699.9649m   15.9640u 
 -529.10678m  699.9649m   15.9463u 
 -529.00678m  699.9649m   15.9285u 
 -528.90678m  699.9650m   15.9108u 
 -528.80678m  699.9650m   15.8931u 
 -528.70678m  699.9651m   15.8754u 
 -528.60678m  699.9651m   15.8578u 
 -528.50678m  699.9651m   15.8401u 
 -528.40678m  699.9652m   15.8225u 
 -528.30678m  699.9652m   15.8049u 
 -528.20678m  699.9652m   15.7874u 
 -528.10678m  699.9653m   15.7698u 
 -528.00678m  699.9653m   15.7523u 
 -527.90678m  699.9654m   15.7348u 
 -527.80678m  699.9654m   15.7173u 
 -527.70678m  699.9654m   15.6998u 
 -527.60678m  699.9655m   15.6824u 
 -527.50678m  699.9655m   15.6649u 
 -527.40678m  699.9655m   15.6475u 
 -527.30678m  699.9656m   15.6302u 
 -527.20678m  699.9656m   15.6128u 
 -527.10678m  699.9657m   15.5954u 
 -527.00678m  699.9657m   15.5781u 
 -526.90678m  699.9657m   15.5608u 
 -526.80678m  699.9658m   15.5435u 
 -526.70678m  699.9658m   15.5263u 
 -526.60678m  699.9658m   15.5090u 
 -526.50678m  699.9659m   15.4918u 
 -526.40678m  699.9659m   15.4746u 
 -526.30678m  699.9660m   15.4574u 
 -526.20678m  699.9660m   15.4403u 
 -526.10678m  699.9660m   15.4231u 
 -526.00678m  699.9661m   15.4060u 
 -525.90678m  699.9661m   15.3889u 
 -525.80678m  699.9661m   15.3718u 
 -525.70678m  699.9662m   15.3548u 
 -525.60678m  699.9662m   15.3377u 
 -525.50678m  699.9662m   15.3207u 
 -525.40678m  699.9663m   15.3037u 
 -525.30678m  699.9663m   15.2867u 
 -525.20678m  699.9664m   15.2698u 
 -525.10678m  699.9664m   15.2528u 
 -525.00678m  699.9664m   15.2359u 
 -524.90678m  699.9665m   15.2190u 
 -524.80678m  699.9665m   15.2021u 
 -524.70678m  699.9665m   15.1853u 
 -524.60678m  699.9666m   15.1684u 
 -524.50678m  699.9666m   15.1516u 
 -524.40678m  699.9667m   15.1348u 
 -524.30678m  699.9667m   15.1180u 
 -524.20678m  699.9667m   15.1012u 
 -524.10678m  699.9668m   15.0845u 
 -524.00678m  699.9668m   15.0678u 
 -523.90678m  699.9668m   15.0511u 
 -523.80678m  699.9669m   15.0344u 
 -523.70678m  699.9669m   15.0177u 
 -523.60678m  699.9669m   15.0011u 
 -523.50678m  699.9670m   14.9845u 
 -523.40678m  699.9670m   14.9679u 
 -523.30678m  699.9670m   14.9513u 
 -523.20678m  699.9671m   14.9347u 
 -523.10678m  699.9671m   14.9182u 
 -523.00678m  699.9672m   14.9016u 
 -522.90678m  699.9672m   14.8851u 
 -522.80678m  699.9672m   14.8686u 
 -522.70678m  699.9673m   14.8522u 
 -522.60678m  699.9673m   14.8357u 
 -522.50678m  699.9673m   14.8193u 
 -522.40678m  699.9674m   14.8029u 
 -522.30678m  699.9674m   14.7865u 
 -522.20678m  699.9674m   14.7701u 
 -522.10678m  699.9675m   14.7538u 
 -522.00678m  699.9675m   14.7374u 
 -521.90678m  699.9675m   14.7211u 
 -521.80678m  699.9676m   14.7048u 
 -521.70678m  699.9676m   14.6886u 
 -521.60678m  699.9676m   14.6723u 
 -521.50678m  699.9677m   14.6561u 
 -521.40678m  699.9677m   14.6398u 
 -521.30678m  699.9678m   14.6237u 
 -521.20678m  699.9678m   14.6075u 
 -521.10678m  699.9678m   14.5913u 
 -521.00678m  699.9679m   14.5752u 
 -520.90678m  699.9679m   14.5590u 
 -520.80678m  699.9679m   14.5429u 
 -520.70678m  699.9680m   14.5269u 
 -520.60678m  699.9680m   14.5108u 
 -520.50678m  699.9680m   14.4947u 
 -520.40678m  699.9681m   14.4787u 
 -520.30678m  699.9681m   14.4627u 
 -520.20678m  699.9681m   14.4467u 
 -520.10678m  699.9682m   14.4307u 
 -520.00678m  699.9682m   14.4148u 
 -519.90678m  699.9682m   14.3989u 
 -519.80678m  699.9683m   14.3829u 
 -519.70678m  699.9683m   14.3670u 
 -519.60678m  699.9683m   14.3512u 
 -519.50678m  699.9684m   14.3353u 
 -519.40678m  699.9684m   14.3195u 
 -519.30678m  699.9684m   14.3036u 
 -519.20678m  699.9685m   14.2878u 
 -519.10678m  699.9685m   14.2721u 
 -519.00678m  699.9685m   14.2563u 
 -518.90678m  699.9686m   14.2405u 
 -518.80678m  699.9686m   14.2248u 
 -518.70678m  699.9687m   14.2091u 
 -518.60678m  699.9687m   14.1934u 
 -518.50678m  699.9687m   14.1777u 
 -518.40678m  699.9688m   14.1621u 
 -518.30678m  699.9688m   14.1464u 
 -518.20678m  699.9688m   14.1308u 
 -518.10678m  699.9689m   14.1152u 
 -518.00678m  699.9689m   14.0996u 
 -517.90678m  699.9689m   14.0841u 
 -517.80678m  699.9690m   14.0685u 
 -517.70678m  699.9690m   14.0530u 
 -517.60678m  699.9690m   14.0375u 
 -517.50678m  699.9691m   14.0220u 
 -517.40678m  699.9691m   14.0065u 
 -517.30678m  699.9691m   13.9911u 
 -517.20678m  699.9692m   13.9756u 
 -517.10678m  699.9692m   13.9602u 
 -517.00678m  699.9692m   13.9448u 
 -516.90678m  699.9693m   13.9294u 
 -516.80678m  699.9693m   13.9141u 
 -516.70678m  699.9693m   13.8987u 
 -516.60678m  699.9694m   13.8834u 
 -516.50678m  699.9694m   13.8681u 
 -516.40678m  699.9694m   13.8528u 
 -516.30678m  699.9695m   13.8375u 
 -516.20678m  699.9695m   13.8223u 
 -516.10678m  699.9695m   13.8070u 
 -516.00678m  699.9696m   13.7918u 
 -515.90678m  699.9696m   13.7766u 
 -515.80678m  699.9696m   13.7614u 
 -515.70678m  699.9697m   13.7463u 
 -515.60678m  699.9697m   13.7311u 
 -515.50678m  699.9697m   13.7160u 
 -515.40678m  699.9697m   13.7009u 
 -515.30678m  699.9698m   13.6858u 
 -515.20678m  699.9698m   13.6707u 
 -515.10678m  699.9698m   13.6556u 
 -515.00678m  699.9699m   13.6406u 
 -514.90678m  699.9699m   13.6256u 
 -514.80678m  699.9699m   13.6106u 
 -514.70678m  699.9700m   13.5956u 
 -514.60678m  699.9700m   13.5806u 
 -514.50678m  699.9700m   13.5656u 
 -514.40678m  699.9701m   13.5507u 
 -514.30678m  699.9701m   13.5358u 
 -514.20678m  699.9701m   13.5209u 
 -514.10678m  699.9702m   13.5060u 
 -514.00678m  699.9702m   13.4911u 
 -513.90678m  699.9702m   13.4763u 
 -513.80678m  699.9703m   13.4614u 
 -513.70678m  699.9703m   13.4466u 
 -513.60678m  699.9703m   13.4318u 
 -513.50678m  699.9704m   13.4170u 
 -513.40678m  699.9704m   13.4023u 
 -513.30678m  699.9704m   13.3875u 
 -513.20678m  699.9705m   13.3728u 
 -513.10678m  699.9705m   13.3581u 
 -513.00678m  699.9705m   13.3434u 
 -512.90678m  699.9706m   13.3287u 
 -512.80678m  699.9706m   13.3141u 
 -512.70678m  699.9706m   13.2994u 
 -512.60678m  699.9706m   13.2848u 
 -512.50678m  699.9707m   13.2702u 
 -512.40678m  699.9707m   13.2556u 
 -512.30678m  699.9707m   13.2410u 
 -512.20678m  699.9708m   13.2265u 
 -512.10678m  699.9708m   13.2119u 
 -512.00678m  699.9708m   13.1974u 
 -511.90678m  699.9709m   13.1829u 
 -511.80678m  699.9709m   13.1684u 
 -511.70678m  699.9709m   13.1539u 
 -511.60678m  699.9710m   13.1395u 
 -511.50678m  699.9710m   13.1250u 
 -511.40678m  699.9710m   13.1106u 
 -511.30678m  699.9711m   13.0962u 
 -511.20678m  699.9711m   13.0818u 
 -511.10678m  699.9711m   13.0675u 
 -511.00678m  699.9712m   13.0531u 
 -510.90678m  699.9712m   13.0388u 
 -510.80678m  699.9712m   13.0244u 
 -510.70678m  699.9712m   13.0101u 
 -510.60678m  699.9713m   12.9959u 
 -510.50678m  699.9713m   12.9816u 
 -510.40678m  699.9713m   12.9673u 
 -510.30678m  699.9714m   12.9531u 
 -510.20678m  699.9714m   12.9389u 
 -510.10678m  699.9714m   12.9247u 
 -510.00678m  699.9715m   12.9105u 
 -509.90678m  699.9715m   12.8963u 
 -509.80678m  699.9715m   12.8822u 
 -509.70678m  699.9716m   12.8680u 
 -509.60678m  699.9716m   12.8539u 
 -509.50678m  699.9716m   12.8398u 
 -509.40678m  699.9716m   12.8257u 
 -509.30678m  699.9717m   12.8116u 
 -509.20678m  699.9717m   12.7976u 
 -509.10678m  699.9717m   12.7835u 
 -509.00678m  699.9718m   12.7695u 
 -508.90678m  699.9718m   12.7555u 
 -508.80678m  699.9718m   12.7415u 
 -508.70678m  699.9719m   12.7276u 
 -508.60678m  699.9719m   12.7136u 
 -508.50678m  699.9719m   12.6997u 
 -508.40678m  699.9719m   12.6857u 
 -508.30678m  699.9720m   12.6718u 
 -508.20678m  699.9720m   12.6579u 
 -508.10678m  699.9720m   12.6441u 
 -508.00678m  699.9721m   12.6302u 
 -507.90678m  699.9721m   12.6164u 
 -507.80678m  699.9721m   12.6025u 
 -507.70678m  699.9722m   12.5887u 
 -507.60678m  699.9722m   12.5749u 
 -507.50678m  699.9722m   12.5612u 
 -507.40678m  699.9722m   12.5474u 
 -507.30678m  699.9723m   12.5336u 
 -507.20678m  699.9723m   12.5199u 
 -507.10678m  699.9723m   12.5062u 
 -507.00678m  699.9724m   12.4925u 
 -506.90678m  699.9724m   12.4788u 
 -506.80678m  699.9724m   12.4652u 
 -506.70678m  699.9725m   12.4515u 
 -506.60678m  699.9725m   12.4379u 
 -506.50678m  699.9725m   12.4243u 
 -506.40678m  699.9725m   12.4106u 
 -506.30678m  699.9726m   12.3971u 
 -506.20678m  699.9726m   12.3835u 
 -506.10678m  699.9726m   12.3699u 
 -506.00678m  699.9727m   12.3564u 
 -505.90678m  699.9727m   12.3429u 
 -505.80678m  699.9727m   12.3294u 
 -505.70678m  699.9728m   12.3159u 
 -505.60678m  699.9728m   12.3024u 
 -505.50678m  699.9728m   12.2889u 
 -505.40678m  699.9728m   12.2755u 
 -505.30678m  699.9729m   12.2621u 
 -505.20678m  699.9729m   12.2487u 
 -505.10678m  699.9729m   12.2353u 
 -505.00678m  699.9730m   12.2219u 
 -504.90678m  699.9730m   12.2085u 
 -504.80678m  699.9730m   12.1952u 
 -504.70678m  699.9730m   12.1818u 
 -504.60678m  699.9731m   12.1685u 
 -504.50678m  699.9731m   12.1552u 
 -504.40678m  699.9731m   12.1419u 
 -504.30678m  699.9732m   12.1286u 
 -504.20678m  699.9732m   12.1154u 
 -504.10678m  699.9732m   12.1021u 
 -504.00678m  699.9732m   12.0889u 
 -503.90678m  699.9733m   12.0757u 
 -503.80678m  699.9733m   12.0625u 
 -503.70678m  699.9733m   12.0493u 
 -503.60678m  699.9734m   12.0362u 
 -503.50678m  699.9734m   12.0230u 
 -503.40678m  699.9734m   12.0099u 
 -503.30678m  699.9734m   11.9968u 
 -503.20678m  699.9735m   11.9837u 
 -503.10678m  699.9735m   11.9706u 
 -503.00678m  699.9735m   11.9575u 
 -502.90678m  699.9736m   11.9444u 
 -502.80678m  699.9736m   11.9314u 
 -502.70678m  699.9736m   11.9184u 
 -502.60678m  699.9736m   11.9054u 
 -502.50678m  699.9737m   11.8924u 
 -502.40678m  699.9737m   11.8794u 
 -502.30678m  699.9737m   11.8664u 
 -502.20678m  699.9738m   11.8535u 
 -502.10678m  699.9738m   11.8405u 
 -502.00678m  699.9738m   11.8276u 
 -501.90678m  699.9738m   11.8147u 
 -501.80678m  699.9739m   11.8018u 
 -501.70678m  699.9739m   11.7889u 
 -501.60678m  699.9739m   11.7761u 
 -501.50678m  699.9740m   11.7632u 
 -501.40678m  699.9740m   11.7504u 
 -501.30678m  699.9740m   11.7376u 
 -501.20678m  699.9740m   11.7248u 
 -501.10678m  699.9741m   11.7120u 
 -501.00678m  699.9741m   11.6992u 
 -500.90678m  699.9741m   11.6864u 
 -500.80678m  699.9741m   11.6737u 
 -500.70678m  699.9742m   11.6610u 
 -500.60678m  699.9742m   11.6483u 
 -500.50678m  699.9742m   11.6356u 
 -500.40678m  699.9743m   11.6229u 
 -500.30678m  699.9743m   11.6102u 
 -500.20678m  699.9743m   11.5976u 
 -500.10678m  699.9743m   11.5849u 
 -500.00678m  699.9744m   11.5723u 
 -499.90678m  699.9744m   11.5597u 
 -499.80678m  699.9744m   11.5471u 
 -499.70678m  699.9744m   11.5345u 
 -499.60678m  699.9745m   11.5219u 
 -499.50678m  699.9745m   11.5094u 
 -499.40678m  699.9745m   11.4969u 
 -499.30678m  699.9746m   11.4843u 
 -499.20678m  699.9746m   11.4718u 
 -499.10678m  699.9746m   11.4593u 
 -499.00678m  699.9746m   11.4469u 
 -498.90678m  699.9747m   11.4344u 
 -498.80678m  699.9747m   11.4219u 
 -498.70678m  699.9747m   11.4095u 
 -498.60678m  699.9747m   11.3971u 
 -498.50678m  699.9748m   11.3847u 
 -498.40678m  699.9748m   11.3723u 
 -498.30678m  699.9748m   11.3599u 
 -498.20678m  699.9749m   11.3476u 
 -498.10678m  699.9749m   11.3352u 
 -498.00678m  699.9749m   11.3229u 
 -497.90678m  699.9749m   11.3106u 
 -497.80678m  699.9750m   11.2982u 
 -497.70678m  699.9750m   11.2860u 
 -497.60678m  699.9750m   11.2737u 
 -497.50678m  699.9750m   11.2614u 
 -497.40678m  699.9751m   11.2492u 
 -497.30678m  699.9751m   11.2369u 
 -497.20678m  699.9751m   11.2247u 
 -497.10678m  699.9751m   11.2125u 
 -497.00678m  699.9752m   11.2003u 
 -496.90678m  699.9752m   11.1881u 
 -496.80678m  699.9752m   11.1760u 
 -496.70678m  699.9753m   11.1638u 
 -496.60678m  699.9753m   11.1517u 
 -496.50678m  699.9753m   11.1396u 
 -496.40678m  699.9753m   11.1275u 
 -496.30678m  699.9754m   11.1154u 
 -496.20678m  699.9754m   11.1033u 
 -496.10678m  699.9754m   11.0912u 
 -496.00678m  699.9754m   11.0792u 
 -495.90678m  699.9755m   11.0671u 
 -495.80678m  699.9755m   11.0551u 
 -495.70678m  699.9755m   11.0431u 
 -495.60678m  699.9755m   11.0311u 
 -495.50678m  699.9756m   11.0191u 
 -495.40678m  699.9756m   11.0072u 
 -495.30678m  699.9756m   10.9952u 
 -495.20678m  699.9756m   10.9833u 
 -495.10678m  699.9757m   10.9714u 
 -495.00678m  699.9757m   10.9594u 
 -494.90678m  699.9757m   10.9475u 
 -494.80678m  699.9758m   10.9357u 
 -494.70678m  699.9758m   10.9238u 
 -494.60678m  699.9758m   10.9119u 
 -494.50678m  699.9758m   10.9001u 
 -494.40678m  699.9759m   10.8883u 
 -494.30678m  699.9759m   10.8765u 
 -494.20678m  699.9759m   10.8647u 
 -494.10678m  699.9759m   10.8529u 
 -494.00678m  699.9760m   10.8411u 
 -493.90678m  699.9760m   10.8293u 
 -493.80678m  699.9760m   10.8176u 
 -493.70678m  699.9760m   10.8059u 
 -493.60678m  699.9761m   10.7941u 
 -493.50678m  699.9761m   10.7824u 
 -493.40678m  699.9761m   10.7707u 
 -493.30678m  699.9761m   10.7591u 
 -493.20678m  699.9762m   10.7474u 
 -493.10678m  699.9762m   10.7357u 
 -493.00678m  699.9762m   10.7241u 
 -492.90678m  699.9762m   10.7125u 
 -492.80678m  699.9763m   10.7009u 
 -492.70678m  699.9763m   10.6893u 
 -492.60678m  699.9763m   10.6777u 
 -492.50678m  699.9763m   10.6661u 
 -492.40678m  699.9764m   10.6546u 
 -492.30678m  699.9764m   10.6430u 
 -492.20678m  699.9764m   10.6315u 
 -492.10678m  699.9764m   10.6200u 
 -492.00678m  699.9765m   10.6085u 
 -491.90678m  699.9765m   10.5970u 
 -491.80678m  699.9765m   10.5855u 
 -491.70678m  699.9765m   10.5740u 
 -491.60678m  699.9766m   10.5626u 
 -491.50678m  699.9766m   10.5511u 
 -491.40678m  699.9766m   10.5397u 
 -491.30678m  699.9766m   10.5283u 
 -491.20678m  699.9767m   10.5169u 
 -491.10678m  699.9767m   10.5055u 
 -491.00678m  699.9767m   10.4942u 
 -490.90678m  699.9767m   10.4828u 
 -490.80678m  699.9768m   10.4714u 
 -490.70678m  699.9768m   10.4601u 
 -490.60678m  699.9768m   10.4488u 
 -490.50678m  699.9768m   10.4375u 
 -490.40678m  699.9769m   10.4262u 
 -490.30678m  699.9769m   10.4149u 
 -490.20678m  699.9769m   10.4037u 
 -490.10678m  699.9769m   10.3924u 
 -490.00678m  699.9770m   10.3812u 
[...]
  665.39322m   77.7174u  699.8353m 
  665.49322m   77.8114u  699.8351m 
  665.59322m   77.9056u  699.8349m 
  665.69322m   77.9999u  699.8347m 
  665.79322m   78.0943u  699.8345m 
  665.89322m   78.1888u  699.8343m 
  665.99322m   78.2835u  699.8341m 
  666.09322m   78.3782u  699.8339m 
  666.19322m   78.4731u  699.8337m 
  666.29322m   78.5681u  699.8335m 
  666.39322m   78.6632u  699.8333m 
  666.49322m   78.7585u  699.8331m 
  666.59322m   78.8538u  699.8329m 
  666.69322m   78.9493u  699.8327m 
  666.79322m   79.0449u  699.8325m 
  666.89322m   79.1406u  699.8323m 
  666.99322m   79.2365u  699.8321m 
  667.09322m   79.3324u  699.8319m 
  667.19322m   79.4285u  699.8317m 
  667.29322m   79.5247u  699.8315m 
  667.39322m   79.6211u  699.8313m 
  667.49322m   79.7175u  699.8311m 
  667.59322m   79.8141u  699.8309m 
  667.69322m   79.9108u  699.8307m 
  667.79322m   80.0076u  699.8305m 
  667.89322m   80.1046u  699.8303m 
  667.99322m   80.2016u  699.8301m 
  668.09322m   80.2988u  699.8299m 
  668.19322m   80.3961u  699.8297m 
  668.29322m   80.4936u  699.8295m 
  668.39322m   80.5911u  699.8293m 
  668.49322m   80.6888u  699.8291m 
  668.59322m   80.7866u  699.8289m 
  668.69322m   80.8846u  699.8287m 
  668.79322m   80.9826u  699.8285m 
  668.89322m   81.0808u  699.8283m 
  668.99322m   81.1791u  699.8281m 
  669.09322m   81.2775u  699.8279m 
  669.19322m   81.3761u  699.8277m 
  669.29322m   81.4748u  699.8275m 
  669.39322m   81.5736u  699.8273m 
  669.49322m   81.6725u  699.8271m 
  669.59322m   81.7716u  699.8269m 
  669.69322m   81.8707u  699.8267m 
  669.79322m   81.9700u  699.8265m 
  669.89322m   82.0695u  699.8263m 
  669.99322m   82.1690u  699.8261m 
  670.09322m   82.2687u  699.8259m 
  670.19322m   82.3685u  699.8257m 
  670.29322m   82.4685u  699.8255m 
  670.39322m   82.5685u  699.8252m 
  670.49322m   82.6687u  699.8250m 
  670.59322m   82.7690u  699.8248m 
  670.69322m   82.8695u  699.8246m 
  670.79322m   82.9701u  699.8244m 
  670.89322m   83.0708u  699.8242m 
  670.99322m   83.1716u  699.8240m 
  671.09322m   83.2726u  699.8238m 
  671.19322m   83.3736u  699.8236m 
  671.29322m   83.4749u  699.8234m 
  671.39322m   83.5762u  699.8232m 
  671.49322m   83.6777u  699.8230m 
  671.59322m   83.7793u  699.8228m 
  671.69322m   83.8810u  699.8225m 
  671.79322m   83.9829u  699.8223m 
  671.89322m   84.0848u  699.8221m 
  671.99322m   84.1870u  699.8219m 
  672.09322m   84.2892u  699.8217m 
  672.19322m   84.3916u  699.8215m 
  672.29322m   84.4941u  699.8213m 
  672.39322m   84.5967u  699.8211m 
  672.49322m   84.6995u  699.8209m 
  672.59322m   84.8024u  699.8206m 
  672.69322m   84.9054u  699.8204m 
  672.79322m   85.0086u  699.8202m 
  672.89322m   85.1119u  699.8200m 
  672.99322m   85.2153u  699.8198m 
  673.09322m   85.3189u  699.8196m 
  673.19322m   85.4225u  699.8194m 
  673.29322m   85.5264u  699.8192m 
  673.39322m   85.6303u  699.8189m 
  673.49322m   85.7344u  699.8187m 
  673.59322m   85.8386u  699.8185m 
  673.69322m   85.9429u  699.8183m 
  673.79322m   86.0474u  699.8181m 
  673.89322m   86.1520u  699.8179m 
  673.99322m   86.2568u  699.8176m 
  674.09322m   86.3617u  699.8174m 
  674.19322m   86.4667u  699.8172m 
  674.29322m   86.5718u  699.8170m 
  674.39322m   86.6771u  699.8168m 
  674.49322m   86.7825u  699.8166m 
  674.59322m   86.8881u  699.8163m 
  674.69322m   86.9937u  699.8161m 
  674.79322m   87.0995u  699.8159m 
  674.89322m   87.2055u  699.8157m 
  674.99322m   87.3116u  699.8155m 
  675.09322m   87.4178u  699.8153m 
  675.19322m   87.5242u  699.8150m 
  675.29322m   87.6306u  699.8148m 
  675.39322m   87.7373u  699.8146m 
  675.49322m   87.8440u  699.8144m 
  675.59322m   87.9509u  699.8142m 
  675.69322m   88.0580u  699.8139m 
  675.79322m   88.1651u  699.8137m 
  675.89322m   88.2724u  699.8135m 
  675.99322m   88.3799u  699.8133m 
  676.09322m   88.4875u  699.8131m 
  676.19322m   88.5952u  699.8128m 
  676.29322m   88.7030u  699.8126m 
  676.39322m   88.8110u  699.8124m 
  676.49322m   88.9191u  699.8122m 
  676.59322m   89.0274u  699.8119m 
  676.69322m   89.1358u  699.8117m 
  676.79322m   89.2443u  699.8115m 
  676.89322m   89.3530u  699.8113m 
  676.99322m   89.4618u  699.8110m 
  677.09322m   89.5708u  699.8108m 
  677.19322m   89.6799u  699.8106m 
  677.29322m   89.7891u  699.8104m 
  677.39322m   89.8985u  699.8101m 
  677.49322m   90.0080u  699.8099m 
  677.59322m   90.1177u  699.8097m 
  677.69322m   90.2274u  699.8095m 
  677.79322m   90.3374u  699.8092m 
  677.89322m   90.4474u  699.8090m 
  677.99322m   90.5577u  699.8088m 
  678.09322m   90.6680u  699.8086m 
  678.19322m   90.7785u  699.8083m 
  678.29322m   90.8891u  699.8081m 
  678.39322m   90.9999u  699.8079m 
  678.49322m   91.1108u  699.8077m 
  678.59322m   91.2219u  699.8074m 
  678.69322m   91.3331u  699.8072m 
  678.79322m   91.4444u  699.8070m 
  678.89322m   91.5559u  699.8067m 
  678.99322m   91.6675u  699.8065m 
  679.09322m   91.7793u  699.8063m 
  679.19322m   91.8912u  699.8060m 
  679.29322m   92.0032u  699.8058m 
  679.39322m   92.1154u  699.8056m 
  679.49322m   92.2278u  699.8054m 
  679.59322m   92.3403u  699.8051m 
  679.69322m   92.4529u  699.8049m 
  679.79322m   92.5656u  699.8047m 
  679.89322m   92.6786u  699.8044m 
  679.99322m   92.7916u  699.8042m 
  680.09322m   92.9048u  699.8040m 
  680.19322m   93.0182u  699.8037m 
  680.29322m   93.1316u  699.8035m 
  680.39322m   93.2453u  699.8033m 
  680.49322m   93.3591u  699.8030m 
  680.59322m   93.4730u  699.8028m 
  680.69322m   93.5870u  699.8026m 
  680.79322m   93.7013u  699.8023m 
  680.89322m   93.8156u  699.8021m 
  680.99322m   93.9301u  699.8019m 
  681.09322m   94.0448u  699.8016m 
  681.19322m   94.1596u  699.8014m 
  681.29322m   94.2745u  699.8011m 
  681.39322m   94.3896u  699.8009m 
  681.49322m   94.5048u  699.8007m 
  681.59322m   94.6202u  699.8004m 
  681.69322m   94.7358u  699.8002m 
  681.79322m   94.8514u  699.8000m 
  681.89322m   94.9673u  699.7997m 
  681.99322m   95.0832u  699.7995m 
  682.09322m   95.1994u  699.7992m 
  682.19322m   95.3156u  699.7990m 
  682.29322m   95.4320u  699.7988m 
  682.39322m   95.5486u  699.7985m 
  682.49322m   95.6653u  699.7983m 
  682.59322m   95.7822u  699.7980m 
  682.69322m   95.8992u  699.7978m 
  682.79322m   96.0164u  699.7976m 
  682.89322m   96.1337u  699.7973m 
  682.99322m   96.2512u  699.7971m 
  683.09322m   96.3688u  699.7968m 
  683.19322m   96.4865u  699.7966m 
  683.29322m   96.6044u  699.7964m 
  683.39322m   96.7225u  699.7961m 
  683.49322m   96.8407u  699.7959m 
  683.59322m   96.9591u  699.7956m 
  683.69322m   97.0776u  699.7954m 
  683.79322m   97.1963u  699.7951m 
  683.89322m   97.3151u  699.7949m 
  683.99322m   97.4341u  699.7947m 
  684.09322m   97.5532u  699.7944m 
  684.19322m   97.6725u  699.7942m 
  684.29322m   97.7919u  699.7939m 
  684.39322m   97.9115u  699.7937m 
  684.49322m   98.0312u  699.7934m 
  684.59322m   98.1511u  699.7932m 
  684.69322m   98.2712u  699.7929m 
  684.79322m   98.3914u  699.7927m 
  684.89322m   98.5117u  699.7924m 
  684.99322m   98.6322u  699.7922m 
  685.09322m   98.7529u  699.7919m 
  685.19322m   98.8737u  699.7917m 
  685.29322m   98.9946u  699.7915m 
  685.39322m   99.1158u  699.7912m 
  685.49322m   99.2370u  699.7910m 
  685.59322m   99.3585u  699.7907m 
  685.69322m   99.4800u  699.7905m 
  685.79322m   99.6018u  699.7902m 
  685.89322m   99.7237u  699.7900m 
  685.99322m   99.8457u  699.7897m 
  686.09322m   99.9679u  699.7895m 
  686.19322m  100.0903u  699.7892m 
  686.29322m  100.2128u  699.7890m 
  686.39322m  100.3355u  699.7887m 
  686.49322m  100.4583u  699.7884m 
  686.59322m  100.5813u  699.7882m 
  686.69322m  100.7045u  699.7879m 
  686.79322m  100.8278u  699.7877m 
  686.89322m  100.9513u  699.7874m 
  686.99322m  101.0749u  699.7872m 
  687.09322m  101.1987u  699.7869m 
  687.19322m  101.3226u  699.7867m 
  687.29322m  101.4467u  699.7864m 
  687.39322m  101.5710u  699.7862m 
  687.49322m  101.6954u  699.7859m 
  687.59322m  101.8199u  699.7857m 
  687.69322m  101.9447u  699.7854m 
  687.79322m  102.0696u  699.7851m 
  687.89322m  102.1946u  699.7849m 
  687.99322m  102.3198u  699.7846m 
  688.09322m  102.4452u  699.7844m 
  688.19322m  102.5708u  699.7841m 
  688.29322m  102.6964u  699.7839m 
  688.39322m  102.8223u  699.7836m 
  688.49322m  102.9483u  699.7833m 
  688.59322m  103.0745u  699.7831m 
  688.69322m  103.2008u  699.7828m 
  688.79322m  103.3273u  699.7826m 
  688.89322m  103.4540u  699.7823m 
  688.99322m  103.5808u  699.7820m 
  689.09322m  103.7078u  699.7818m 
  689.19322m  103.8350u  699.7815m 
  689.29322m  103.9623u  699.7813m 
  689.39322m  104.0898u  699.7810m 
  689.49322m  104.2174u  699.7807m 
  689.59322m  104.3452u  699.7805m 
  689.69322m  104.4732u  699.7802m 
  689.79322m  104.6013u  699.7800m 
  689.89322m  104.7296u  699.7797m 
  689.99322m  104.8581u  699.7794m 
  690.09322m  104.9867u  699.7792m 
  690.19322m  105.1155u  699.7789m 
  690.29322m  105.2444u  699.7786m 
  690.39322m  105.3736u  699.7784m 
  690.49322m  105.5029u  699.7781m 
  690.59322m  105.6323u  699.7778m 
  690.69322m  105.7619u  699.7776m 
  690.79322m  105.8917u  699.7773m 
  690.89322m  106.0217u  699.7770m 
  690.99322m  106.1518u  699.7768m 
  691.09322m  106.2821u  699.7765m 
  691.19322m  106.4125u  699.7762m 
  691.29322m  106.5431u  699.7760m 
  691.39322m  106.6739u  699.7757m 
  691.49322m  106.8049u  699.7754m 
  691.59322m  106.9360u  699.7752m 
  691.69322m  107.0673u  699.7749m 
  691.79322m  107.1987u  699.7746m 
  691.89322m  107.3304u  699.7744m 
  691.99322m  107.4622u  699.7741m 
  692.09322m  107.5941u  699.7738m 
  692.19322m  107.7263u  699.7735m 
  692.29322m  107.8586u  699.7733m 
  692.39322m  107.9910u  699.7730m 
  692.49322m  108.1237u  699.7727m 
  692.59322m  108.2565u  699.7725m 
  692.69322m  108.3895u  699.7722m 
  692.79322m  108.5226u  699.7719m 
  692.89322m  108.6560u  699.7716m 
  692.99322m  108.7895u  699.7714m 
  693.09322m  108.9231u  699.7711m 
  693.19322m  109.0570u  699.7708m 
  693.29322m  109.1910u  699.7705m 
  693.39322m  109.3252u  699.7703m 
  693.49322m  109.4595u  699.7700m 
  693.59322m  109.5941u  699.7697m 
  693.69322m  109.7288u  699.7694m 
  693.79322m  109.8636u  699.7692m 
  693.89322m  109.9987u  699.7689m 
  693.99322m  110.1339u  699.7686m 
  694.09322m  110.2693u  699.7683m 
  694.19322m  110.4049u  699.7681m 
  694.29322m  110.5406u  699.7678m 
  694.39322m  110.6765u  699.7675m 
  694.49322m  110.8126u  699.7672m 
  694.59322m  110.9489u  699.7670m 
  694.69322m  111.0853u  699.7667m 
  694.79322m  111.2219u  699.7664m 
  694.89322m  111.3587u  699.7661m 
  694.99322m  111.4957u  699.7658m 
  695.09322m  111.6328u  699.7656m 
  695.19322m  111.7702u  699.7653m 
  695.29322m  111.9077u  699.7650m 
  695.39322m  112.0453u  699.7647m 
  695.49322m  112.1832u  699.7644m 
  695.59322m  112.3212u  699.7641m 
  695.69322m  112.4594u  699.7639m 
  695.79322m  112.5978u  699.7636m 
  695.89322m  112.7364u  699.7633m 
  695.99322m  112.8751u  699.7630m 
  696.09322m  113.0140u  699.7627m 
  696.19322m  113.1531u  699.7624m 
  696.29322m  113.2924u  699.7622m 
  696.39322m  113.4318u  699.7619m 
  696.49322m  113.5715u  699.7616m 
  696.59322m  113.7113u  699.7613m 
  696.69322m  113.8513u  699.7610m 
  696.79322m  113.9915u  699.7607m 
  696.89322m  114.1318u  699.7604m 
  696.99322m  114.2723u  699.7602m 
  697.09322m  114.4130u  699.7599m 
  697.19322m  114.5539u  699.7596m 
  697.29322m  114.6950u  699.7593m 
  697.39322m  114.8363u  699.7590m 
  697.49322m  114.9777u  699.7587m 
  697.59322m  115.1193u  699.7584m 
  697.69322m  115.2611u  699.7581m 
  697.79322m  115.4031u  699.7578m 
  697.89322m  115.5453u  699.7576m 
  697.99322m  115.6876u  699.7573m 
  698.09322m  115.8302u  699.7570m 
  698.19322m  115.9729u  699.7567m 
  698.29322m  116.1158u  699.7564m 
  698.39322m  116.2589u  699.7561m 
  698.49322m  116.4022u  699.7558m 
  698.59322m  116.5456u  699.7555m 
  698.69322m  116.6892u  699.7552m 
  698.79322m  116.8331u  699.7549m 
  698.89322m  116.9771u  699.7546m 
  698.99322m  117.1213u  699.7543m 
  699.09322m  117.2656u  699.7540m 
  699.19322m  117.4102u  699.7537m 
  699.29322m  117.5550u  699.7534m 
  699.39322m  117.6999u  699.7531m 
  699.49322m  117.8450u  699.7529m 
  699.59322m  117.9903u  699.7526m 
  699.69322m  118.1358u  699.7523m 
  699.79322m  118.2815u  699.7520m 
  699.89322m  118.4274u  699.7517m 
  699.99322m  118.5735u  699.7514m 
  700.09322m  118.7197u  699.7511m 
  700.19322m  118.8661u  699.7508m 
  700.29322m  119.0128u  699.7505m 
  700.39322m  119.1596u  699.7502m 
  700.49322m  119.3066u  699.7499m 
  700.59322m  119.4538u  699.7496m 
  700.69322m  119.6012u  699.7493m 
  700.79322m  119.7487u  699.7490m 
  700.89322m  119.8965u  699.7487m 
  700.99322m  120.0445u  699.7484m 
  701.09322m  120.1926u  699.7481m 
  701.19322m  120.3409u  699.7478m 
  701.29322m  120.4895u  699.7475m 
  701.39322m  120.6382u  699.7471m 
  701.49322m  120.7871u  699.7468m 
  701.59322m  120.9362u  699.7465m 
  701.69322m  121.0855u  699.7462m 
  701.79322m  121.2350u  699.7459m 
  701.89322m  121.3847u  699.7456m 
  701.99322m  121.5345u  699.7453m 
  702.09322m  121.6846u  699.7450m 
  702.19322m  121.8349u  699.7447m 
  702.29322m  121.9853u  699.7444m 
  702.39322m  122.1360u  699.7441m 
  702.49322m  122.2868u  699.7438m 
  702.59322m  122.4378u  699.7435m 
  702.69322m  122.5891u  699.7432m 
  702.79322m  122.7405u  699.7429m 
  702.89322m  122.8921u  699.7425m 
  702.99322m  123.0439u  699.7422m 
  703.09322m  123.1959u  699.7419m 
  703.19322m  123.3481u  699.7416m 
  703.29322m  123.5006u  699.7413m 
  703.39322m  123.6532u  699.7410m 
  703.49322m  123.8060u  699.7407m 
  703.59322m  123.9589u  699.7404m 
  703.69322m  124.1121u  699.7401m 
  703.79322m  124.2655u  699.7397m 
  703.89322m  124.4191u  699.7394m 
  703.99322m  124.5729u  699.7391m 
  704.09322m  124.7269u  699.7388m 
  704.19322m  124.8811u  699.7385m 
  704.29322m  125.0355u  699.7382m 
  704.39322m  125.1900u  699.7379m 
  704.49322m  125.3448u  699.7375m 
  704.59322m  125.4998u  699.7372m 
  704.69322m  125.6550u  699.7369m 
  704.79322m  125.8104u  699.7366m 
  704.89322m  125.9660u  699.7363m 
  704.99322m  126.1217u  699.7360m 
  705.09322m  126.2777u  699.7356m 
  705.19322m  126.4339u  699.7353m 
  705.29322m  126.5903u  699.7350m 
  705.39322m  126.7469u  699.7347m 
  705.49322m  126.9037u  699.7344m 
  705.59322m  127.0607u  699.7340m 
  705.69322m  127.2179u  699.7337m 
  705.79322m  127.3753u  699.7334m 
  705.89322m  127.5329u  699.7331m 
  705.99322m  127.6907u  699.7328m 
  706.09322m  127.8487u  699.7324m 
  706.19322m  128.0069u  699.7321m 
  706.29322m  128.1653u  699.7318m 
  706.39322m  128.3240u  699.7315m 
  706.49322m  128.4828u  699.7311m 
  706.59322m  128.6418u  699.7308m 
  706.69322m  128.8011u  699.7305m 
  706.79322m  128.9605u  699.7302m 
  706.89322m  129.1202u  699.7298m 
  706.99322m  129.2800u  699.7295m 
  707.09322m  129.4401u  699.7292m 
y
1****** HSPICE -- Q-2020.03-SP2-2 linux64 (Nov  1 2020) ******                  
 ******  
 .title ex1_1

 ****** operating point information tnom=  25.000 temp=  25.000 ******
 ****** operating point status is all       simulation time is     0.     
    node    =voltage      node    =voltage      node    =voltage

 +0:bl      = 700.0000m 0:blb     = 700.0000m 0:gl      = 372.9743m
 +0:gr      = 372.9743m 0:q       = 186.4871m 0:qb      = 186.4871m
 +0:u       =   0.      0:v1      = 263.7326m 0:v2      = 263.7326m
 +0:vdd     = 700.0000m 0:wl      =   0.      0:x       = 671.3248m


 **** voltage sources

 subckt                                   
 element  0:vdd      0:vu       0:vwl     
  volts    700.0000m    0.         0.     
  current   -1.0091u    0.       265.1779f
  power    706.3955n    0.         0.     

     total voltage source power dissipation=  706.3955n       watts



 **** voltage-controlled voltage sources


 subckt                                              
 element  0:eli      0:eri      0:ev1      0:ev2     
  volts    186.4871m  186.4871m  263.7326m  263.7326m
  current   -3.4602f   -3.4602f    0.         0.     





 **** mosfets


 subckt                                                                    
 element  0:mp_pu1   0:mp_pu2   0:mn_pd1   0:mn_pd2   0:mn_ax1   0:mn_ax2  
 model    0:pmos_sra 0:pmos_sra 0:nmos_sra 0:nmos_sra 0:nmos_sra 0:nmos_sra
 region   Subth      Subth      Subth      Subth      Cutoff     Cutoff    
  id      -504.5682n -504.5682n  504.5682n  504.5682n  973.7259a  973.7259a
  ibs        0.         0.         0.         0.         0.         0.     
  ibd        0.         0.         0.         0.         0.         0.     
  vgs     -327.0257m -327.0257m  372.9743m  372.9743m -186.4871m -186.4871m
  vds     -513.5129m -513.5129m  186.4871m  186.4871m  513.5129m  513.5129m
  vbs        0.         0.         0.         0.       484.8377m  484.8377m
  vth     -331.5878m -331.5878m  409.4770m  409.4770m  407.6919m  407.6919m
  vdsat    -95.3103m  -95.3103m   79.6537m   79.6537m   70.6690m   70.6690m
  vod        4.5620m    4.5620m  -36.5027m  -36.5027m -594.1791m -594.1791m
  beta       1.6413m    1.6413m    2.1736m    2.1736m    2.1736m    2.1736m
  gam eff    0.         0.         0.         0.         0.         0.     
  gm        13.1336u   13.1336u   15.4019u   15.4019u    1.2409a    1.2409a
  gds      286.6448n  286.6448n  361.2807n  361.2807n  170.0186a  170.0186a
  gmb        4.8038p    4.8038p    5.1500p    5.1500p  1.775e-20  1.775e-20
  cdtot     10.1635a   10.1635a   10.2536a   10.2536a   10.2225a   10.2225a
  cgtot     31.1248a   31.1248a   26.6601a   26.6601a   20.4450a   20.4450a
  cstot     17.2245a   17.2245a   14.3293a   14.3293a   10.2225a   10.2225a
  cbtot      0.         0.         0.         0.         0.         0.     
  cgs       21.0788a   21.0788a   16.4052a   16.4052a   10.2225a   10.2225a
  cgd       10.0460a   10.0460a   10.2549a   10.2549a   10.2225a   10.2225a




          ***** job concluded
 ******  
 .title ex1_1

 ****** job statistics summary tnom=  25.000 temp=  25.000 ******
  
 ******  Machine Information  ******
 CPU:
 model name	: AMD EPYC 7713 64-Core Processor
 cpu MHz	: 2000.000
  
 OS:
 Linux version 3.10.0-1160.88.1.el7.x86_64 (mockbuild@kbuilder.bsys.centos.org) (gcc version 4.8.5 20150623 (Red Hat 4.8.5-44) (GCC) ) #1 SMP Tue Mar 7 15:41:52 UTC 2023


  ******  HSPICE Threads Information  ******

  Command Line Threads Count :     1
  Available CPU Count        :   256
  Actual Threads Count       :     1


  ******  Circuit Statistics  ******
  # nodes       =      13 # elements   =      13
  # resistors   =       0 # capacitors =       0 # inductors   =       0
  # mutual_inds =       0 # vccs       =       0 # vcvs        =       4
  # cccs        =       0 # ccvs       =       0 # volt_srcs   =       3
  # curr_srcs   =       0 # diodes     =       0 # bjts        =       0
  # jfets       =       0 # mosfets    =       6 # U elements  =       0
  # T elements  =       0 # W elements =       0 # B elements  =       0
  # S elements  =       0 # P elements =       0 # va device   =       0
  # vector_srcs =       0 # N elements =       0


  ******  Runtime Statistics (seconds)  ******

  analysis           time    # points   tot. iter  conv.iter
  op point           0.01           1           7
  dc sweep           1.07       14143       43798
  readin             0.01
  errchk             0.00
  setup              0.00
  output             0.00


           peak memory used        400.88 megabytes
           total cpu time            1.15 seconds
           total elapsed time        1.39 seconds
           job started at     21:10:22 03/18/2025
           job ended   at     21:10:23 03/18/2025
           job total runtime         1.39 seconds


 lic: Release hspice token(s) 
 lic: total license checkout elapse time:        0.23(s)
