 ****** HSPICE -- Q-2020.03-SP2-2 linux64 (Nov  1 2020) ******                  
  Copyright (c) 1986 - 2025 by Synopsys, Inc. All Rights Reserved.              
  This software and the associated documentation are proprietary
  to Synopsys, Inc. This software may only be used in accordance
  with the terms and conditions of a written license agreement with
  Synopsys, Inc. All other use, reproduction, or distribution of
  this software is strictly prohibited.
  Input File: ex1_1.sp                                                          
  Command line options: /RAID2/cad/synopsys/hspice/2020.03-sp2-2/hspice/linux64/hspice -i ex1_1.sp -o ex1_1.lis
  Start time: Fri Mar 14 20:46:51 2025
 lic:  
 lic: FLEXlm: SDK_12.6 
 lic: USER:   es25MCS042           HOSTNAME: ee28 
 lic: HOSTID: "d85ed3efc19a"       PID:      218903 
 lic: Using FLEXlm license file: 
 lic: 26585@lshc 
 lic: Checkout 1 hspice 
 lic: License/Maintenance for hspice will expire on 14-may-2025/2024.09 
 lic: 108(in_use)/1100(total) FLOATING license(s) on SERVER 26585@lshc 
 lic:   
  
      
             
 Warning:'Floating bulk' occurs 1 times
 Summary of floating bulk:
 -----------------------
 |Node      |Device    |
 |----------+----------|
 |x         |mp_pu1    |
 -----------------------
              
 *****************************************************************
 ******  option summary
 ******
 runlvl  = 3         bypass  = 2.0000    
 ******
 .title ex1_1

 ****** dc transfer curves tnom=  25.000 temp=  25.000 ******
x

 volt         voltage    voltage   
             q          qb         
 -707.10678m   22.1047n  700.0000m 
 -697.10678m   20.8558n  700.0000m 
 -687.10678m   19.6312n  700.0000m 
 -677.10678m   18.4268n  700.0000m 
 -667.10678m   17.2393n  700.0000m 
 -657.10678m   16.0664n  700.0000m 
 -647.10678m   14.9093n  700.0000m 
 -637.10678m   13.7696n  700.0000m 
 -627.10678m   12.6530n  700.0000m 
 -617.10678m   11.5710n  700.0000m 
 -607.10678m   10.5428n  700.0000m 
 -597.10678m    9.5990n  700.0000m 
 -587.10678m    8.7855n  700.0000m 
 -577.10678m    8.1656n  700.0000m 
 -567.10678m    7.8169n  700.0000m 
 -557.10678m    7.8136n  700.0000m 
 -547.10678m    8.2067n  700.0000m 
 -537.10678m    9.0859n  700.0000m 
 -527.10678m   10.7432n  700.0000m 
 -517.10678m   13.7567n  700.0000m 
 -507.10678m   19.1535n  700.0000m 
 -497.10678m   28.7584n  700.0000m 
 -487.10678m   45.8194n  700.0000m 
 -477.10678m   76.1340n  700.0000m 
 -467.10678m  130.0804n  700.0000m 
 -457.10678m  226.2972n  699.9999m 
 -447.10678m  398.3806n  699.9999m 
 -437.10678m  707.1314n  699.9998m 
 -427.10678m    1.2631u  699.9997m 
 -417.10678m    2.2680u  699.9995m 
 -407.10678m    4.0925u  699.9991m 
 -397.10678m    7.4198u  699.9984m 
 -387.10678m   13.5173u  699.9972m 
 -377.10678m   24.7456u  699.9949m 
 -367.10678m   45.5231u  699.9908m 
 -357.10678m   84.1505u  699.9833m 
 -347.10678m  156.2556u  699.9695m 
 -337.10678m  291.2014u  699.9440m 
 -327.10678m  543.6553u  699.8967m 
 -317.10678m    1.0133m  699.8084m 
 -307.10678m    1.8746m  699.6425m 
 -297.10678m    3.4105m  699.3310m 
 -287.10678m    6.0212m  698.7497m 
 -277.10678m   10.1590m  697.6861m 
 -267.10678m   16.1739m  695.8160m 
 -257.10678m   24.1643m  692.7315m 
 -247.10678m   33.9526m  688.0511m 
 -237.10678m   45.1761m  681.5550m 
 -227.10678m   57.4011m  673.2429m 
 -217.10678m   70.2432m  663.3027m 
 -207.10678m   83.4525m  652.0492m 
 -197.10678m   96.8884m  639.8447m 
 -187.10678m  110.4675m  627.0127m 
 -177.10678m  124.1376m  613.7906m 
 -167.10678m  137.8663m  600.3315m 
 -157.10678m  151.6339m  586.7277m 
 -147.10678m  165.4285m  573.0338m 
 -137.10678m  179.2421m  559.2823m 
 -127.10678m  193.0698m  545.4927m 
 -117.10678m  206.9082m  531.6773m 
 -107.10678m  220.7549m  517.8441m 
  -97.10678m  234.6081m  503.9981m 
  -87.10678m  248.4666m  490.1429m 
  -77.10678m  262.3294m  476.2809m 
  -67.10678m  276.1958m  462.4140m 
  -57.10678m  290.0650m  448.5434m 
  -47.10678m  303.9366m  434.6701m 
  -37.10678m  317.8101m  420.7950m 
  -27.10678m  331.6851m  406.9184m 
  -17.10678m  345.5613m  393.0411m 
   -7.10678m  359.4384m  379.1634m 
    2.89322m  373.3160m  365.2858m 
   12.89322m  387.1937m  351.4084m 
   22.89322m  401.0712m  337.5318m 
   32.89322m  414.9481m  323.6562m 
   42.89322m  428.8239m  309.7820m 
   52.89322m  442.6981m  295.9096m 
   62.89322m  456.5699m  282.0393m 
   72.89322m  470.4385m  268.1717m 
   82.89322m  484.3028m  254.3073m 
   92.89322m  498.1611m  240.4469m 
  102.89322m  512.0113m  226.5913m 
  112.89322m  525.8504m  212.7417m 
  122.89322m  539.6741m  198.8996m 
  132.89322m  553.4757m  185.0670m 
  142.89322m  567.2452m  171.2469m 
  152.89322m  580.9665m  157.4436m 
  162.89322m  594.6133m  143.6634m 
  172.89322m  608.1420m  129.9164m 
  182.89322m  621.4785m  116.2186m 
  192.89322m  634.4985m  102.5962m 
  202.89322m  647.0023m   89.0919m 
  212.89322m  658.7002m   75.7742m 
  222.89322m  669.2369m   62.7546m 
  232.89322m  678.2668m   50.2298m 
  242.89322m  685.5402m   38.5314m 
  252.89322m  690.9715m   28.0875m 
  262.89322m  694.6887m   19.3045m 
  272.89322m  697.0189m   12.4521m 
  282.89322m  698.3765m    7.5540m 
  292.89322m  699.1288m    4.3532m 
  302.89322m  699.5346m    2.4189m 
  312.89322m  699.7509m    1.3149m 
  322.89322m  699.8661m  707.0805u 
  332.89322m  699.9276m  378.7991u 
  342.89322m  699.9606m  203.0459u 
  352.89322m  699.9785m  109.1653u 
  362.89322m  699.9882m   58.9399u 
  372.89322m  699.9934m   31.9732u 
  382.89322m  699.9964m   17.4294u 
  392.89322m  699.9980m    9.5477u 
  402.89322m  699.9989m    5.2555u 
  412.89322m  699.9994m    2.9067u 
  422.89322m  699.9996m    1.6154u 
  432.89322m  699.9998m  902.2998n 
  442.89322m  699.9999m  506.9047n 
  452.89322m  699.9999m  286.8502n 
  462.89322m  700.0000m  163.9702n 
  472.89322m  700.0000m   95.1509n 
  482.89322m  700.0000m   56.5124n 
  492.89322m  700.0000m   34.7783n 
  502.89322m  700.0000m   22.5418n 
  512.89322m  700.0000m   15.6581n 
  522.89322m  700.0000m   11.8014n 
  532.89322m  700.0000m    9.6634n 
  542.89322m  700.0000m    8.5070n 
  552.89322m  700.0000m    7.9284n 
  562.89322m  700.0000m    7.7699n 
  572.89322m  700.0000m    7.9809n 
  582.89322m  700.0000m    8.4964n 
  592.89322m  700.0000m    9.2371n 
  602.89322m  700.0000m   10.1326n 
  612.89322m  700.0000m   11.1297n 
  622.89322m  700.0000m   12.1920n 
  632.89322m  700.0000m   13.2958n 
  642.89322m  700.0000m   14.4267n 
  652.89322m  700.0000m   15.5768n 
  662.89322m  700.0000m   16.7434n 
  672.89322m  700.0000m   17.9246n 
  682.89322m  700.0000m   19.1215n 
  692.89322m  700.0000m   20.3371n 
  702.89322m  700.0000m   21.5752n 
y

          ***** job concluded
1****** HSPICE -- Q-2020.03-SP2-2 linux64 (Nov  1 2020) ******                  
 ******  
 .title ex1_1

 ****** job statistics summary tnom=  25.000 temp=  25.000 ******
  
 ******  Machine Information  ******
 CPU:
 model name	: AMD EPYC 7713 64-Core Processor
 cpu MHz	: 2000.000
  
 OS:
 Linux version 3.10.0-1160.88.1.el7.x86_64 (mockbuild@kbuilder.bsys.centos.org) (gcc version 4.8.5 20150623 (Red Hat 4.8.5-44) (GCC) ) #1 SMP Tue Mar 7 15:41:52 UTC 2023


  ******  HSPICE Threads Information  ******

  Command Line Threads Count :     1
  Available CPU Count        :   256
  Actual Threads Count       :     1


  ******  Circuit Statistics  ******
  # nodes       =      13 # elements   =      15
  # resistors   =       0 # capacitors =       2 # inductors   =       0
  # mutual_inds =       0 # vccs       =       0 # vcvs        =       4
  # cccs        =       0 # ccvs       =       0 # volt_srcs   =       3
  # curr_srcs   =       0 # diodes     =       0 # bjts        =       0
  # jfets       =       0 # mosfets    =       6 # U elements  =       0
  # T elements  =       0 # W elements =       0 # B elements  =       0
  # S elements  =       0 # P elements =       0 # va device   =       0
  # vector_srcs =       0 # N elements =       0


  ******  Runtime Statistics (seconds)  ******

  analysis           time    # points   tot. iter  conv.iter
  op point           0.00           1           0
  dc sweep           0.03         142         484
  readin             0.02
  errchk             0.01
  setup              0.00
  output             0.00


           peak memory used        401.11 megabytes
           total cpu time            0.06 seconds
           total elapsed time        0.43 seconds
           job started at     20:46:51 03/14/2025
           job ended   at     20:46:51 03/14/2025
           job total runtime         0.43 seconds


 lic: Release hspice token(s) 
 lic: total license checkout elapse time:        0.36(s)
