 ****** HSPICE -- Q-2020.03-SP2-2 linux64 (Nov  1 2020) ******                  
  Copyright (c) 1986 - 2025 by Synopsys, Inc. All Rights Reserved.              
  This software and the associated documentation are proprietary
  to Synopsys, Inc. This software may only be used in accordance
  with the terms and conditions of a written license agreement with
  Synopsys, Inc. All other use, reproduction, or distribution of
  this software is strictly prohibited.
  Input File: ex1_1.sp                                                          
  Command line options: /RAID2/cad/synopsys/hspice/2020.03-sp2-2/hspice/linux64/hspice -i ex1_1.sp -o ex1_1.lis
  Start time: Tue Mar 18 21:32:55 2025
 lic:  
 lic: FLEXlm: SDK_12.6 
 lic: USER:   es25MCS042           HOSTNAME: ee28 
 lic: HOSTID: "d85ed3efc19a"       PID:      224391 
 lic: Using FLEXlm license file: 
 lic: 26585@lshc 
 lic: Checkout 1 hspice 
 lic: License/Maintenance for hspice will expire on 14-may-2025/2024.09 
 lic: 292(in_use)/1100(total) FLOATING license(s) on SERVER 26585@lshc 
 lic:   
  
             
 Warning:'No DC path nodes' occurs 1 times
 No DC path from the following nodes,connected with gdcpath:
 -----------------------
 |Node      |Subckt    |
 |----------+----------|
 |gr        |0         |
 -----------------------
              
      
             
 Warning:'Floating bulk' occurs 1 times
 Summary of floating bulk:
 -----------------------
 |Node      |Device    |
 |----------+----------|
 |x         |mn_ax1    |
 -----------------------
              
 *****************************************************************
 ******  option summary
 ******
 runlvl  = 3         bypass  = 2.0000    
 ******
 .title ex1_1

 ****** dc transfer curves tnom=  25.000 temp=  25.000 ******
x

 volt         voltage    voltage   
             q          qb         
 -707.10678m  699.9999m  218.2532m 
 -707.00678m  699.9999m  218.2532m 
 -706.90678m  699.9999m  218.2532m 
 -706.80678m  699.9999m  218.2532m 
 -706.70678m  699.9999m  218.2532m 
 -706.60678m  699.9999m  218.2532m 
 -706.50678m  699.9999m  218.2532m 
 -706.40678m  699.9999m  218.2532m 
 -706.30678m  699.9999m  218.2532m 
 -706.20678m  699.9999m  218.2532m 
 -706.10678m  699.9999m  218.2532m 
 -706.00678m  699.9999m  218.2532m 
 -705.90678m  699.9999m  218.2532m 
 -705.80678m  699.9999m  218.2532m 
 -705.70678m  699.9999m  218.2532m 
 -705.60678m  699.9999m  218.2532m 
 -705.50678m  699.9999m  218.2532m 
 -705.40678m  699.9999m  218.2532m 
 -705.30678m  699.9999m  218.2532m 
 -705.20678m  699.9999m  218.2532m 
 -705.10678m  699.9999m  218.2532m 
 -705.00678m  699.9999m  218.2532m 
 -704.90678m  699.9999m  218.2532m 
 -704.80678m  699.9999m  218.2532m 
 -704.70678m  699.9999m  218.2532m 
 -704.60678m  699.9999m  218.2532m 
 -704.50678m  699.9999m  218.2532m 
 -704.40678m  699.9999m  218.2532m 
 -704.30678m  699.9999m  218.2532m 
 -704.20678m  699.9999m  218.2532m 
 -704.10678m  699.9999m  218.2532m 
 -704.00678m  699.9999m  218.2532m 
 -703.90678m  699.9999m  218.2532m 
 -703.80678m  699.9999m  218.2532m 
 -703.70678m  699.9999m  218.2532m 
 -703.60678m  699.9999m  218.2532m 
 -703.50678m  699.9999m  218.2532m 
 -703.40678m  699.9999m  218.2532m 
 -703.30678m  699.9999m  218.2532m 
 -703.20678m  699.9999m  218.2532m 
 -703.10678m  699.9999m  218.2532m 
 -703.00678m  699.9999m  218.2532m 
 -702.90678m  699.9999m  218.2532m 
 -702.80678m  699.9999m  218.2532m 
 -702.70678m  699.9999m  218.2532m 
 -702.60678m  699.9999m  218.2532m 
 -702.50678m  699.9999m  218.2532m 
 -702.40678m  699.9999m  218.2532m 
 -702.30678m  699.9999m  218.2532m 
 -702.20678m  699.9999m  218.2532m 
 -702.10678m  699.9999m  218.2532m 
 -702.00678m  699.9999m  218.2532m 
 -701.90678m  699.9999m  218.2532m 
 -701.80678m  699.9999m  218.2532m 
 -701.70678m  699.9999m  218.2532m 
 -701.60678m  699.9999m  218.2532m 
 -701.50678m  699.9999m  218.2532m 
 -701.40678m  699.9999m  218.2532m 
 -701.30678m  699.9999m  218.2532m 
 -701.20678m  699.9999m  218.2532m 
 -701.10678m  699.9999m  218.2532m 
 -701.00678m  699.9999m  218.2532m 
 -700.90678m  699.9999m  218.2532m 
 -700.80678m  699.9999m  218.2532m 
 -700.70678m  699.9999m  218.2532m 
 -700.60678m  699.9999m  218.2532m 
 -700.50678m  699.9999m  218.2532m 
 -700.40678m  699.9999m  218.2532m 
 -700.30678m  699.9999m  218.2532m 
 -700.20678m  699.9999m  218.2532m 
 -700.10678m  699.9999m  218.2532m 
 -700.00678m  699.9999m  218.2532m 
 -699.90678m  699.9999m  218.2532m 
 -699.80678m  699.9999m  218.2532m 
 -699.70678m  699.9999m  218.2532m 
 -699.60678m  699.9999m  218.2532m 
 -699.50678m  699.9999m  218.2532m 
 -699.40678m  699.9999m  218.2532m 
 -699.30678m  699.9999m  218.2532m 
 -699.20678m  699.9999m  218.2532m 
 -699.10678m  699.9999m  218.2532m 
 -699.00678m  699.9999m  218.2532m 
 -698.90678m  699.9999m  218.2532m 
 -698.80678m  699.9999m  218.2532m 
 -698.70678m  699.9999m  218.2532m 
 -698.60678m  699.9999m  218.2532m 
 -698.50678m  699.9999m  218.2532m 
 -698.40678m  699.9999m  218.2532m 
 -698.30678m  699.9999m  218.2532m 
 -698.20678m  699.9999m  218.2532m 
 -698.10678m  699.9999m  218.2532m 
 -698.00678m  699.9999m  218.2532m 
 -697.90678m  699.9999m  218.2532m 
 -697.80678m  699.9999m  218.2532m 
 -697.70678m  699.9999m  218.2532m 
 -697.60678m  699.9999m  218.2532m 
 -697.50678m  699.9999m  218.2532m 
 -697.40678m  699.9999m  218.2532m 
 -697.30678m  699.9999m  218.2532m 
 -697.20678m  699.9999m  218.2532m 
 -697.10678m  699.9999m  218.2532m 
 -697.00678m  699.9999m  218.2532m 
 -696.90678m  699.9999m  218.2532m 
 -696.80678m  699.9999m  218.2532m 
 -696.70678m  699.9999m  218.2532m 
 -696.60678m  699.9999m  218.2532m 
 -696.50678m  699.9999m  218.2532m 
 -696.40678m  699.9999m  218.2532m 
 -696.30678m  699.9999m  218.2532m 
 -696.20678m  699.9999m  218.2532m 
 -696.10678m  699.9999m  218.2532m 
 -696.00678m  699.9999m  218.2532m 
 -695.90678m  699.9999m  218.2532m 
 -695.80678m  699.9999m  218.2532m 
 -695.70678m  699.9999m  218.2532m 
 -695.60678m  699.9999m  218.2532m 
 -695.50678m  699.9999m  218.2532m 
 -695.40678m  699.9999m  218.2532m 
 -695.30678m  699.9999m  218.2532m 
 -695.20678m  699.9999m  218.2532m 
 -695.10678m  699.9999m  218.2532m 
 -695.00678m  699.9999m  218.2532m 
 -694.90678m  699.9999m  218.2532m 
 -694.80678m  699.9999m  218.2532m 
 -694.70678m  699.9999m  218.2532m 
 -694.60678m  699.9999m  218.2532m 
 -694.50678m  699.9999m  218.2532m 
 -694.40678m  699.9999m  218.2532m 
 -694.30678m  699.9999m  218.2532m 
 -694.20678m  699.9999m  218.2532m 
 -694.10678m  699.9999m  218.2532m 
 -694.00678m  699.9999m  218.2532m 
 -693.90678m  699.9999m  218.2532m 
 -693.80678m  699.9999m  218.2532m 
 -693.70678m  699.9999m  218.2532m 
 -693.60678m  699.9999m  218.2532m 
 -693.50678m  699.9999m  218.2532m 
 -693.40678m  699.9999m  218.2532m 
 -693.30678m  699.9999m  218.2532m 
 -693.20678m  699.9999m  218.2532m 
 -693.10678m  699.9999m  218.2532m 
 -693.00678m  699.9999m  218.2532m 
 -692.90678m  699.9999m  218.2532m 
 -692.80678m  699.9999m  218.2532m 
 -692.70678m  699.9999m  218.2532m 
 -692.60678m  699.9999m  218.2532m 
 -692.50678m  699.9999m  218.2532m 
 -692.40678m  699.9999m  218.2532m 
 -692.30678m  699.9999m  218.2532m 
 -692.20678m  699.9999m  218.2532m 
 -692.10678m  699.9999m  218.2532m 
 -692.00678m  699.9999m  218.2532m 
 -691.90678m  699.9999m  218.2532m 
 -691.80678m  699.9999m  218.2532m 
 -691.70678m  699.9999m  218.2532m 
 -691.60678m  699.9999m  218.2532m 
 -691.50678m  699.9999m  218.2532m 
 -691.40678m  699.9999m  218.2532m 
 -691.30678m  699.9999m  218.2532m 
 -691.20678m  699.9999m  218.2532m 
 -691.10678m  699.9999m  218.2532m 
 -691.00678m  699.9999m  218.2532m 
 -690.90678m  699.9999m  218.2532m 
 -690.80678m  699.9999m  218.2532m 
 -690.70678m  699.9999m  218.2532m 
 -690.60678m  699.9999m  218.2532m 
 -690.50678m  699.9999m  218.2532m 
 -690.40678m  699.9999m  218.2532m 
 -690.30678m  699.9999m  218.2532m 
 -690.20678m  699.9999m  218.2532m 
 -690.10678m  699.9999m  218.2532m 
 -690.00678m  699.9999m  218.2532m 
 -689.90678m  699.9999m  218.2532m 
 -689.80678m  699.9999m  218.2532m 
 -689.70678m  699.9999m  218.2532m 
 -689.60678m  699.9999m  218.2532m 
 -689.50678m  699.9999m  218.2532m 
 -689.40678m  699.9999m  218.2532m 
 -689.30678m  699.9999m  218.2532m 
 -689.20678m  699.9999m  218.2532m 
 -689.10678m  699.9999m  218.2532m 
 -689.00678m  699.9999m  218.2532m 
 -688.90678m  699.9999m  218.2532m 
 -688.80678m  699.9999m  218.2532m 
 -688.70678m  699.9999m  218.2532m 
 -688.60678m  699.9999m  218.2532m 
 -688.50678m  699.9999m  218.2532m 
 -688.40678m  699.9999m  218.2532m 
 -688.30678m  699.9999m  218.2532m 
 -688.20678m  699.9999m  218.2532m 
 -688.10678m  699.9999m  218.2532m 
 -688.00678m  699.9999m  218.2532m 
 -687.90678m  699.9999m  218.2532m 
 -687.80678m  699.9999m  218.2532m 
 -687.70678m  699.9999m  218.2532m 
 -687.60678m  699.9999m  218.2532m 
 -687.50678m  699.9999m  218.2532m 
 -687.40678m  699.9999m  218.2532m 
 -687.30678m  699.9999m  218.2532m 
 -687.20678m  699.9999m  218.2532m 
 -687.10678m  699.9999m  218.2532m 
 -687.00678m  699.9999m  218.2532m 
 -686.90678m  699.9999m  218.2532m 
 -686.80678m  699.9999m  218.2532m 
 -686.70678m  699.9999m  218.2532m 
 -686.60678m  699.9999m  218.2532m 
 -686.50678m  699.9999m  218.2532m 
 -686.40678m  699.9999m  218.2532m 
 -686.30678m  699.9999m  218.2532m 
 -686.20678m  699.9999m  218.2532m 
 -686.10678m  699.9999m  218.2532m 
 -686.00678m  699.9999m  218.2532m 
 -685.90678m  699.9999m  218.2532m 
 -685.80678m  699.9999m  218.2532m 
 -685.70678m  699.9999m  218.2532m 
 -685.60678m  699.9999m  218.2532m 
 -685.50678m  699.9999m  218.2532m 
 -685.40678m  699.9999m  218.2532m 
 -685.30678m  699.9999m  218.2532m 
 -685.20678m  699.9999m  218.2532m 
 -685.10678m  699.9999m  218.2532m 
 -685.00678m  699.9999m  218.2532m 
 -684.90678m  699.9999m  218.2532m 
 -684.80678m  699.9999m  218.2532m 
 -684.70678m  699.9999m  218.2532m 
 -684.60678m  699.9999m  218.2532m 
 -684.50678m  699.9999m  218.2532m 
 -684.40678m  699.9999m  218.2532m 
 -684.30678m  699.9999m  218.2532m 
 -684.20678m  699.9999m  218.2532m 
 -684.10678m  699.9999m  218.2532m 
 -684.00678m  699.9999m  218.2532m 
 -683.90678m  699.9999m  218.2532m 
 -683.80678m  699.9999m  218.2532m 
 -683.70678m  699.9999m  218.2532m 
 -683.60678m  699.9999m  218.2532m 
 -683.50678m  699.9999m  218.2532m 
 -683.40678m  699.9999m  218.2532m 
 -683.30678m  699.9999m  218.2532m 
 -683.20678m  699.9999m  218.2532m 
 -683.10678m  699.9999m  218.2532m 
 -683.00678m  699.9999m  218.2532m 
 -682.90678m  699.9999m  218.2532m 
 -682.80678m  699.9999m  218.2532m 
 -682.70678m  699.9999m  218.2532m 
 -682.60678m  699.9999m  218.2532m 
 -682.50678m  699.9999m  218.2532m 
 -682.40678m  699.9999m  218.2532m 
 -682.30678m  699.9999m  218.2532m 
 -682.20678m  699.9999m  218.2532m 
 -682.10678m  699.9999m  218.2532m 
 -682.00678m  699.9999m  218.2532m 
 -681.90678m  699.9999m  218.2532m 
 -681.80678m  699.9999m  218.2532m 
 -681.70678m  699.9999m  218.2532m 
 -681.60678m  699.9999m  218.2532m 
 -681.50678m  699.9999m  218.2532m 
 -681.40678m  699.9999m  218.2532m 
 -681.30678m  699.9999m  218.2532m 
 -681.20678m  699.9999m  218.2532m 
 -681.10678m  699.9999m  218.2532m 
 -681.00678m  699.9999m  218.2532m 
 -680.90678m  699.9999m  218.2532m 
 -680.80678m  699.9999m  218.2532m 
 -680.70678m  699.9999m  218.2532m 
 -680.60678m  699.9999m  218.2532m 
 -680.50678m  699.9999m  218.2532m 
 -680.40678m  699.9999m  218.2532m 
 -680.30678m  699.9999m  218.2532m 
 -680.20678m  699.9999m  218.2532m 
 -680.10678m  699.9999m  218.2532m 
 -680.00678m  699.9999m  218.2532m 
 -679.90678m  699.9999m  218.2532m 
 -679.80678m  699.9999m  218.2532m 
 -679.70678m  699.9999m  218.2532m 
 -679.60678m  699.9999m  218.2532m 
 -679.50678m  699.9999m  218.2532m 
 -679.40678m  699.9999m  218.2532m 
 -679.30678m  699.9999m  218.2532m 
 -679.20678m  699.9999m  218.2532m 
 -679.10678m  699.9999m  218.2532m 
 -679.00678m  699.9999m  218.2532m 
 -678.90678m  699.9999m  218.2532m 
 -678.80678m  699.9999m  218.2532m 
 -678.70678m  699.9999m  218.2532m 
 -678.60678m  699.9999m  218.2532m 
 -678.50678m  699.9999m  218.2532m 
 -678.40678m  699.9999m  218.2532m 
 -678.30678m  699.9999m  218.2532m 
 -678.20678m  699.9999m  218.2532m 
 -678.10678m  699.9999m  218.2532m 
 -678.00678m  699.9999m  218.2532m 
 -677.90678m  699.9999m  218.2532m 
 -677.80678m  699.9999m  218.2532m 
 -677.70678m  699.9999m  218.2532m 
 -677.60678m  699.9999m  218.2532m 
 -677.50678m  699.9999m  218.2532m 
 -677.40678m  699.9999m  218.2532m 
 -677.30678m  699.9999m  218.2532m 
 -677.20678m  699.9999m  218.2532m 
 -677.10678m  699.9999m  218.2532m 
 -677.00678m  699.9999m  218.2532m 
 -676.90678m  699.9999m  218.2532m 
 -676.80678m  699.9999m  218.2532m 
 -676.70678m  699.9999m  218.2532m 
 -676.60678m  699.9999m  218.2532m 
 -676.50678m  699.9999m  218.2532m 
 -676.40678m  699.9999m  218.2532m 
 -676.30678m  699.9999m  218.2532m 
 -676.20678m  699.9999m  218.2532m 
 -676.10678m  699.9999m  218.2532m 
 -676.00678m  699.9999m  218.2532m 
 -675.90678m  699.9999m  218.2532m 
 -675.80678m  699.9999m  218.2532m 
 -675.70678m  699.9999m  218.2532m 
 -675.60678m  699.9999m  218.2532m 
 -675.50678m  699.9999m  218.2532m 
 -675.40678m  699.9999m  218.2532m 
 -675.30678m  699.9999m  218.2532m 
 -675.20678m  699.9999m  218.2532m 
 -675.10678m  699.9999m  218.2532m 
 -675.00678m  699.9999m  218.2532m 
 -674.90678m  699.9999m  218.2532m 
 -674.80678m  699.9999m  218.2532m 
 -674.70678m  699.9999m  218.2532m 
 -674.60678m  699.9999m  218.2532m 
 -674.50678m  699.9999m  218.2532m 
 -674.40678m  699.9999m  218.2532m 
 -674.30678m  699.9999m  218.2532m 
 -674.20678m  699.9999m  218.2532m 
 -674.10678m  699.9999m  218.2532m 
 -674.00678m  699.9999m  218.2532m 
 -673.90678m  699.9999m  218.2532m 
 -673.80678m  699.9999m  218.2532m 
 -673.70678m  699.9999m  218.2532m 
 -673.60678m  699.9999m  218.2532m 
 -673.50678m  699.9999m  218.2532m 
 -673.40678m  699.9999m  218.2532m 
 -673.30678m  699.9999m  218.2532m 
 -673.20678m  699.9999m  218.2532m 
 -673.10678m  699.9999m  218.2532m 
 -673.00678m  699.9999m  218.2532m 
 -672.90678m  699.9999m  218.2532m 
 -672.80678m  699.9999m  218.2532m 
 -672.70678m  699.9999m  218.2532m 
 -672.60678m  699.9999m  218.2532m 
 -672.50678m  699.9999m  218.2532m 
 -672.40678m  699.9999m  218.2532m 
 -672.30678m  699.9999m  218.2532m 
 -672.20678m  699.9999m  218.2532m 
 -672.10678m  699.9999m  218.2532m 
 -672.00678m  699.9999m  218.2532m 
 -671.90678m  699.9999m  218.2532m 
 -671.80678m  699.9999m  218.2532m 
 -671.70678m  699.9999m  218.2532m 
 -671.60678m  699.9999m  218.2532m 
 -671.50678m  699.9999m  218.2532m 
 -671.40678m  699.9999m  218.2532m 
 -671.30678m  699.9999m  218.2532m 
 -671.20678m  699.9999m  218.2532m 
 -671.10678m  699.9999m  218.2532m 
 -671.00678m  699.9999m  218.2532m 
 -670.90678m  699.9999m  218.2532m 
 -670.80678m  699.9999m  218.2532m 
 -670.70678m  699.9999m  218.2532m 
 -670.60678m  699.9999m  218.2532m 
 -670.50678m  699.9999m  218.2532m 
 -670.40678m  699.9999m  218.2532m 
 -670.30678m  699.9999m  218.2532m 
 -670.20678m  699.9999m  218.2532m 
 -670.10678m  699.9999m  218.2532m 
 -670.00678m  699.9999m  218.2532m 
 -669.90678m  699.9999m  218.2532m 
 -669.80678m  699.9999m  218.2532m 
 -669.70678m  699.9999m  218.2532m 
 -669.60678m  699.9999m  218.2532m 
 -669.50678m  699.9999m  218.2532m 
 -669.40678m  699.9999m  218.2532m 
 -669.30678m  699.9999m  218.2532m 
 -669.20678m  699.9999m  218.2532m 
 -669.10678m  699.9999m  218.2532m 
 -669.00678m  699.9999m  218.2532m 
 -668.90678m  699.9999m  218.2532m 
 -668.80678m  699.9999m  218.2532m 
 -668.70678m  699.9999m  218.2532m 
 -668.60678m  699.9999m  218.2532m 
 -668.50678m  699.9999m  218.2532m 
 -668.40678m  699.9999m  218.2532m 
 -668.30678m  699.9999m  218.2532m 
 -668.20678m  699.9999m  218.2532m 
 -668.10678m  699.9999m  218.2532m 
 -668.00678m  699.9999m  218.2532m 
 -667.90678m  699.9999m  218.2532m 
 -667.80678m  699.9999m  218.2532m 
 -667.70678m  699.9999m  218.2532m 
 -667.60678m  699.9999m  218.2532m 
 -667.50678m  699.9999m  218.2532m 
 -667.40678m  699.9999m  218.2532m 
 -667.30678m  699.9999m  218.2532m 
 -667.20678m  699.9999m  218.2532m 
 -667.10678m  699.9999m  218.2532m 
 -667.00678m  699.9999m  218.2532m 
 -666.90678m  699.9999m  218.2532m 
 -666.80678m  699.9999m  218.2532m 
 -666.70678m  699.9999m  218.2532m 
 -666.60678m  699.9999m  218.2532m 
 -666.50678m  699.9999m  218.2532m 
 -666.40678m  699.9999m  218.2532m 
 -666.30678m  699.9999m  218.2532m 
 -666.20678m  699.9999m  218.2532m 
 -666.10678m  699.9999m  218.2532m 
 -666.00678m  699.9999m  218.2532m 
 -665.90678m  699.9999m  218.2532m 
 -665.80678m  699.9999m  218.2532m 
 -665.70678m  699.9999m  218.2532m 
 -665.60678m  699.9999m  218.2532m 
 -665.50678m  699.9999m  218.2532m 
 -665.40678m  699.9999m  218.2532m 
 -665.30678m  699.9999m  218.2532m 
 -665.20678m  699.9999m  218.2532m 
 -665.10678m  699.9999m  218.2532m 
 -665.00678m  699.9999m  218.2532m 
 -664.90678m  699.9999m  218.2532m 
 -664.80678m  699.9999m  218.2532m 
 -664.70678m  699.9999m  218.2532m 
 -664.60678m  699.9999m  218.2532m 
 -664.50678m  699.9999m  218.2532m 
 -664.40678m  699.9999m  218.2532m 
 -664.30678m  699.9999m  218.2532m 
 -664.20678m  699.9999m  218.2532m 
 -664.10678m  699.9999m  218.2532m 
 -664.00678m  699.9999m  218.2532m 
 -663.90678m  699.9999m  218.2532m 
 -663.80678m  699.9999m  218.2532m 
 -663.70678m  699.9999m  218.2532m 
 -663.60678m  699.9999m  218.2532m 
 -663.50678m  699.9999m  218.2532m 
 -663.40678m  699.9999m  218.2532m 
 -663.30678m  699.9999m  218.2532m 
 -663.20678m  699.9999m  218.2532m 
 -663.10678m  699.9999m  218.2532m 
 -663.00678m  699.9999m  218.2532m 
 -662.90678m  699.9999m  218.2532m 
 -662.80678m  699.9999m  218.2532m 
 -662.70678m  699.9999m  218.2532m 
 -662.60678m  699.9999m  218.2532m 
 -662.50678m  699.9999m  218.2532m 
 -662.40678m  699.9999m  218.2532m 
 -662.30678m  699.9999m  218.2532m 
 -662.20678m  699.9999m  218.2532m 
 -662.10678m  699.9999m  218.2532m 
 -662.00678m  699.9999m  218.2532m 
 -661.90678m  699.9999m  218.2532m 
 -661.80678m  699.9999m  218.2532m 
 -661.70678m  699.9999m  218.2532m 
 -661.60678m  699.9999m  218.2532m 
 -661.50678m  699.9999m  218.2532m 
 -661.40678m  699.9999m  218.2532m 
 -661.30678m  699.9999m  218.2532m 
 -661.20678m  699.9999m  218.2532m 
 -661.10678m  699.9999m  218.2532m 
 -661.00678m  699.9999m  218.2532m 
 -660.90678m  699.9999m  218.2532m 
 -660.80678m  699.9999m  218.2532m 
 -660.70678m  699.9999m  218.2532m 
 -660.60678m  699.9999m  218.2532m 
 -660.50678m  699.9999m  218.2532m 
 -660.40678m  699.9999m  218.2532m 
 -660.30678m  699.9999m  218.2532m 
 -660.20678m  699.9999m  218.2532m 
 -660.10678m  699.9999m  218.2532m 
 -660.00678m  699.9999m  218.2532m 
 -659.90678m  699.9999m  218.2532m 
 -659.80678m  699.9999m  218.2532m 
 -659.70678m  699.9999m  218.2532m 
 -659.60678m  699.9999m  218.2532m 
 -659.50678m  699.9999m  218.2532m 
 -659.40678m  699.9999m  218.2532m 
 -659.30678m  699.9999m  218.2532m 
 -659.20678m  699.9999m  218.2532m 
 -659.10678m  699.9999m  218.2532m 
 -659.00678m  699.9999m  218.2532m 
 -658.90678m  699.9999m  218.2532m 
 -658.80678m  699.9999m  218.2532m 
 -658.70678m  699.9999m  218.2532m 
 -658.60678m  699.9999m  218.2532m 
 -658.50678m  699.9999m  218.2532m 
 -658.40678m  699.9999m  218.2532m 
 -658.30678m  699.9999m  218.2532m 
 -658.20678m  699.9999m  218.2532m 
 -658.10678m  699.9999m  218.2532m 
 -658.00678m  699.9999m  218.2532m 
 -657.90678m  699.9999m  218.2532m 
 -657.80678m  699.9999m  218.2532m 
 -657.70678m  699.9999m  218.2532m 
 -657.60678m  699.9999m  218.2532m 
 -657.50678m  699.9999m  218.2532m 
 -657.40678m  699.9999m  218.2532m 
 -657.30678m  699.9999m  218.2532m 
 -657.20678m  699.9999m  218.2532m 
 -657.10678m  699.9999m  218.2532m 
 -657.00678m  699.9999m  218.2532m 
 -656.90678m  699.9999m  218.2532m 
 -656.80678m  699.9999m  218.2532m 
 -656.70678m  699.9999m  218.2532m 
 -656.60678m  699.9999m  218.2532m 
 -656.50678m  699.9999m  218.2532m 
 -656.40678m  699.9999m  218.2532m 
 -656.30678m  699.9999m  218.2532m 
 -656.20678m  699.9999m  218.2532m 
 -656.10678m  699.9999m  218.2532m 
 -656.00678m  699.9999m  218.2532m 
 -655.90678m  699.9999m  218.2532m 
 -655.80678m  699.9999m  218.2532m 
 -655.70678m  699.9999m  218.2532m 
 -655.60678m  699.9999m  218.2532m 
 -655.50678m  699.9999m  218.2532m 
 -655.40678m  699.9999m  218.2532m 
 -655.30678m  699.9999m  218.2532m 
 -655.20678m  699.9999m  218.2532m 
 -655.10678m  699.9999m  218.2532m 
 -655.00678m  699.9999m  218.2532m 
 -654.90678m  699.9999m  218.2532m 
 -654.80678m  699.9999m  218.2532m 
 -654.70678m  699.9999m  218.2532m 
 -654.60678m  699.9999m  218.2532m 
 -654.50678m  699.9999m  218.2532m 
 -654.40678m  699.9999m  218.2532m 
 -654.30678m  699.9999m  218.2532m 
 -654.20678m  699.9999m  218.2532m 
 -654.10678m  699.9999m  218.2532m 
 -654.00678m  699.9999m  218.2532m 
 -653.90678m  699.9999m  218.2532m 
 -653.80678m  699.9999m  218.2532m 
 -653.70678m  699.9999m  218.2532m 
 -653.60678m  699.9999m  218.2532m 
 -653.50678m  699.9999m  218.2532m 
 -653.40678m  699.9999m  218.2532m 
 -653.30678m  699.9999m  218.2532m 
 -653.20678m  699.9999m  218.2532m 
 -653.10678m  699.9999m  218.2532m 
 -653.00678m  699.9999m  218.2532m 
 -652.90678m  699.9999m  218.2532m 
 -652.80678m  699.9999m  218.2532m 
 -652.70678m  699.9999m  218.2532m 
 -652.60678m  699.9999m  218.2532m 
 -652.50678m  699.9999m  218.2532m 
 -652.40678m  699.9999m  218.2532m 
 -652.30678m  699.9999m  218.2532m 
 -652.20678m  699.9999m  218.2532m 
 -652.10678m  699.9999m  218.2532m 
 -652.00678m  699.9999m  218.2532m 
 -651.90678m  699.9999m  218.2532m 
 -651.80678m  699.9999m  218.2532m 
 -651.70678m  699.9999m  218.2532m 
 -651.60678m  699.9999m  218.2532m 
 -651.50678m  699.9999m  218.2532m 
 -651.40678m  699.9999m  218.2532m 
 -651.30678m  699.9999m  218.2532m 
 -651.20678m  699.9999m  218.2532m 
 -651.10678m  699.9999m  218.2532m 
 -651.00678m  699.9999m  218.2532m 
 -650.90678m  699.9999m  218.2532m 
 -650.80678m  699.9999m  218.2532m 
 -650.70678m  699.9999m  218.2532m 
 -650.60678m  699.9999m  218.2532m 
 -650.50678m  699.9999m  218.2532m 
 -650.40678m  699.9999m  218.2532m 
 -650.30678m  699.9999m  218.2532m 
 -650.20678m  699.9999m  218.2532m 
 -650.10678m  699.9999m  218.2532m 
 -650.00678m  699.9999m  218.2532m 
 -649.90678m  699.9999m  218.2532m 
 -649.80678m  699.9999m  218.2532m 
 -649.70678m  699.9999m  218.2532m 
 -649.60678m  699.9999m  218.2532m 
 -649.50678m  699.9999m  218.2532m 
 -649.40678m  699.9999m  218.2532m 
 -649.30678m  699.9999m  218.2532m 
 -649.20678m  699.9999m  218.2532m 
 -649.10678m  699.9999m  218.2532m 
 -649.00678m  699.9999m  218.2532m 
 -648.90678m  699.9999m  218.2532m 
 -648.80678m  699.9999m  218.2532m 
 -648.70678m  699.9999m  218.2532m 
 -648.60678m  699.9999m  218.2532m 
 -648.50678m  699.9999m  218.2532m 
 -648.40678m  699.9999m  218.2532m 
 -648.30678m  699.9999m  218.2532m 
 -648.20678m  699.9999m  218.2532m 
 -648.10678m  699.9999m  218.2532m 
 -648.00678m  699.9999m  218.2532m 
 -647.90678m  699.9999m  218.2532m 
 -647.80678m  699.9999m  218.2532m 
 -647.70678m  699.9999m  218.2532m 
 -647.60678m  699.9999m  218.2532m 
 -647.50678m  699.9999m  218.2532m 
 -647.40678m  699.9999m  218.2532m 
 -647.30678m  699.9999m  218.2532m 
 -647.20678m  699.9999m  218.2532m 
 -647.10678m  699.9999m  218.2532m 
 -647.00678m  699.9999m  218.2532m 
 -646.90678m  699.9999m  218.2532m 
 -646.80678m  699.9999m  218.2532m 
 -646.70678m  699.9999m  218.2532m 
 -646.60678m  699.9999m  218.2532m 
 -646.50678m  699.9999m  218.2532m 
 -646.40678m  699.9999m  218.2532m 
 -646.30678m  699.9999m  218.2532m 
 -646.20678m  699.9999m  218.2532m 
 -646.10678m  699.9999m  218.2532m 
 -646.00678m  699.9999m  218.2532m 
 -645.90678m  699.9999m  218.2532m 
 -645.80678m  699.9999m  218.2532m 
 -645.70678m  699.9999m  218.2532m 
 -645.60678m  699.9999m  218.2532m 
 -645.50678m  699.9999m  218.2532m 
 -645.40678m  699.9999m  218.2532m 
 -645.30678m  699.9999m  218.2532m 
 -645.20678m  699.9999m  218.2532m 
 -645.10678m  699.9999m  218.2532m 
 -645.00678m  699.9999m  218.2532m 
 -644.90678m  699.9999m  218.2532m 
 -644.80678m  699.9999m  218.2532m 
 -644.70678m  699.9999m  218.2532m 
 -644.60678m  699.9999m  218.2532m 
 -644.50678m  699.9999m  218.2532m 
 -644.40678m  699.9999m  218.2532m 
 -644.30678m  699.9999m  218.2532m 
 -644.20678m  699.9999m  218.2532m 
 -644.10678m  699.9999m  218.2532m 
 -644.00678m  699.9999m  218.2532m 
 -643.90678m  699.9999m  218.2532m 
 -643.80678m  699.9999m  218.2532m 
 -643.70678m  699.9999m  218.2532m 
 -643.60678m  699.9999m  218.2532m 
 -643.50678m  699.9999m  218.2532m 
 -643.40678m  699.9999m  218.2532m 
 -643.30678m  699.9999m  218.2532m 
 -643.20678m  699.9999m  218.2532m 
 -643.10678m  699.9999m  218.2532m 
 -643.00678m  699.9999m  218.2532m 
 -642.90678m  699.9999m  218.2532m 
 -642.80678m  699.9999m  218.2532m 
 -642.70678m  699.9999m  218.2532m 
 -642.60678m  699.9999m  218.2532m 
 -642.50678m  699.9999m  218.2532m 
 -642.40678m  699.9999m  218.2532m 
 -642.30678m  699.9999m  218.2532m 
 -642.20678m  699.9999m  218.2532m 
 -642.10678m  699.9999m  218.2532m 
 -642.00678m  699.9999m  218.2532m 
 -641.90678m  699.9999m  218.2532m 
 -641.80678m  699.9999m  218.2532m 
 -641.70678m  699.9999m  218.2532m 
 -641.60678m  699.9999m  218.2532m 
 -641.50678m  699.9999m  218.2532m 
 -641.40678m  699.9999m  218.2532m 
 -641.30678m  699.9999m  218.2532m 
 -641.20678m  699.9999m  218.2532m 
 -641.10678m  699.9999m  218.2532m 
 -641.00678m  699.9999m  218.2532m 
 -640.90678m  699.9999m  218.2532m 
 -640.80678m  699.9999m  218.2532m 
 -640.70678m  699.9999m  218.2532m 
 -640.60678m  699.9999m  218.2532m 
 -640.50678m  699.9999m  218.2532m 
 -640.40678m  699.9999m  218.2532m 
 -640.30678m  699.9999m  218.2532m 
 -640.20678m  699.9999m  218.2532m 
 -640.10678m  699.9999m  218.2532m 
 -640.00678m  699.9999m  218.2532m 
 -639.90678m  699.9999m  218.2532m 
 -639.80678m  699.9999m  218.2532m 
 -639.70678m  699.9999m  218.2532m 
 -639.60678m  699.9999m  218.2532m 
 -639.50678m  699.9999m  218.2532m 
 -639.40678m  699.9999m  218.2532m 
 -639.30678m  699.9999m  218.2532m 
 -639.20678m  699.9999m  218.2532m 
 -639.10678m  699.9999m  218.2532m 
 -639.00678m  699.9999m  218.2532m 
 -638.90678m  699.9999m  218.2532m 
 -638.80678m  699.9999m  218.2532m 
 -638.70678m  699.9999m  218.2532m 
 -638.60678m  699.9999m  218.2532m 
 -638.50678m  699.9999m  218.2532m 
 -638.40678m  699.9999m  218.2532m 
 -638.30678m  699.9999m  218.2532m 
 -638.20678m  699.9999m  218.2532m 
 -638.10678m  699.9999m  218.2532m 
 -638.00678m  699.9999m  218.2532m 
 -637.90678m  699.9999m  218.2532m 
 -637.80678m  699.9999m  218.2532m 
 -637.70678m  699.9999m  218.2532m 
 -637.60678m  699.9999m  218.2532m 
 -637.50678m  699.9999m  218.2532m 
 -637.40678m  699.9999m  218.2532m 
 -637.30678m  699.9999m  218.2532m 
 -637.20678m  699.9999m  218.2532m 
 -637.10678m  699.9999m  218.2532m 
 -637.00678m  699.9999m  218.2532m 
 -636.90678m  699.9999m  218.2532m 
 -636.80678m  699.9999m  218.2532m 
 -636.70678m  699.9999m  218.2532m 
 -636.60678m  699.9999m  218.2532m 
 -636.50678m  699.9999m  218.2532m 
 -636.40678m  699.9999m  218.2532m 
 -636.30678m  699.9999m  218.2532m 
 -636.20678m  699.9999m  218.2532m 
 -636.10678m  699.9999m  218.2532m 
 -636.00678m  699.9999m  218.2532m 
 -635.90678m  699.9999m  218.2532m 
 -635.80678m  699.9999m  218.2532m 
 -635.70678m  699.9999m  218.2532m 
 -635.60678m  699.9999m  218.2532m 
 -635.50678m  699.9999m  218.2532m 
 -635.40678m  699.9999m  218.2532m 
 -635.30678m  699.9999m  218.2532m 
 -635.20678m  699.9999m  218.2532m 
 -635.10678m  699.9999m  218.2532m 
 -635.00678m  699.9999m  218.2532m 
 -634.90678m  699.9999m  218.2532m 
 -634.80678m  699.9999m  218.2532m 
 -634.70678m  699.9999m  218.2532m 
 -634.60678m  699.9999m  218.2532m 
 -634.50678m  699.9999m  218.2532m 
 -634.40678m  699.9999m  218.2532m 
 -634.30678m  699.9999m  218.2532m 
 -634.20678m  699.9999m  218.2532m 
 -634.10678m  699.9999m  218.2532m 
 -634.00678m  699.9999m  218.2532m 
 -633.90678m  699.9999m  218.2532m 
 -633.80678m  699.9999m  218.2532m 
 -633.70678m  699.9999m  218.2532m 
 -633.60678m  699.9999m  218.2532m 
 -633.50678m  699.9999m  218.2532m 
 -633.40678m  699.9999m  218.2532m 
 -633.30678m  699.9999m  218.2532m 
 -633.20678m  699.9999m  218.2532m 
 -633.10678m  699.9999m  218.2532m 
 -633.00678m  699.9999m  218.2532m 
 -632.90678m  699.9999m  218.2532m 
 -632.80678m  699.9999m  218.2532m 
 -632.70678m  699.9999m  218.2532m 
 -632.60678m  699.9999m  218.2532m 
 -632.50678m  699.9999m  218.2532m 
 -632.40678m  699.9999m  218.2532m 
 -632.30678m  699.9999m  218.2532m 
 -632.20678m  699.9999m  218.2532m 
 -632.10678m  699.9999m  218.2532m 
 -632.00678m  699.9999m  218.2532m 
 -631.90678m  699.9999m  218.2532m 
 -631.80678m  699.9999m  218.2532m 
 -631.70678m  699.9999m  218.2532m 
 -631.60678m  699.9999m  218.2532m 
 -631.50678m  699.9999m  218.2532m 
 -631.40678m  699.9999m  218.2532m 
 -631.30678m  699.9999m  218.2532m 
 -631.20678m  699.9999m  218.2532m 
 -631.10678m  699.9999m  218.2532m 
 -631.00678m  699.9999m  218.2532m 
 -630.90678m  699.9999m  218.2532m 
 -630.80678m  699.9999m  218.2532m 
 -630.70678m  699.9999m  218.2532m 
 -630.60678m  699.9999m  218.2532m 
 -630.50678m  699.9999m  218.2532m 
 -630.40678m  699.9999m  218.2532m 
 -630.30678m  699.9999m  218.2532m 
 -630.20678m  699.9999m  218.2532m 
 -630.10678m  699.9999m  218.2532m 
 -630.00678m  699.9999m  218.2532m 
 -629.90678m  699.9999m  218.2532m 
 -629.80678m  699.9999m  218.2532m 
 -629.70678m  699.9999m  218.2532m 
 -629.60678m  699.9999m  218.2532m 
 -629.50678m  699.9999m  218.2532m 
 -629.40678m  699.9999m  218.2532m 
 -629.30678m  699.9999m  218.2532m 
 -629.20678m  699.9999m  218.2532m 
 -629.10678m  699.9999m  218.2532m 
 -629.00678m  699.9999m  218.2532m 
 -628.90678m  699.9999m  218.2532m 
 -628.80678m  699.9999m  218.2532m 
 -628.70678m  699.9999m  218.2532m 
 -628.60678m  699.9999m  218.2532m 
 -628.50678m  699.9999m  218.2532m 
 -628.40678m  699.9999m  218.2532m 
 -628.30678m  699.9999m  218.2532m 
 -628.20678m  699.9999m  218.2532m 
 -628.10678m  699.9999m  218.2532m 
 -628.00678m  699.9999m  218.2532m 
 -627.90678m  699.9999m  218.2532m 
 -627.80678m  699.9999m  218.2532m 
 -627.70678m  699.9999m  218.2532m 
 -627.60678m  699.9999m  218.2532m 
 -627.50678m  699.9999m  218.2532m 
 -627.40678m  699.9999m  218.2532m 
 -627.30678m  699.9999m  218.2532m 
 -627.20678m  699.9999m  218.2532m 
 -627.10678m  699.9999m  218.2532m 
 -627.00678m  699.9999m  218.2532m 
 -626.90678m  699.9999m  218.2532m 
 -626.80678m  699.9999m  218.2532m 
 -626.70678m  699.9999m  218.2532m 
 -626.60678m  699.9999m  218.2532m 
 -626.50678m  699.9999m  218.2532m 
 -626.40678m  699.9999m  218.2532m 
 -626.30678m  699.9999m  218.2532m 
 -626.20678m  699.9999m  218.2532m 
 -626.10678m  699.9999m  218.2532m 
 -626.00678m  699.9999m  218.2532m 
 -625.90678m  699.9999m  218.2532m 
 -625.80678m  699.9999m  218.2532m 
 -625.70678m  699.9999m  218.2532m 
 -625.60678m  699.9999m  218.2532m 
 -625.50678m  699.9999m  218.2532m 
 -625.40678m  699.9999m  218.2532m 
 -625.30678m  699.9999m  218.2532m 
 -625.20678m  699.9999m  218.2532m 
 -625.10678m  699.9999m  218.2532m 
 -625.00678m  699.9999m  218.2532m 
 -624.90678m  699.9999m  218.2532m 
 -624.80678m  699.9999m  218.2532m 
 -624.70678m  699.9999m  218.2532m 
 -624.60678m  699.9999m  218.2532m 
 -624.50678m  699.9999m  218.2532m 
 -624.40678m  699.9999m  218.2532m 
 -624.30678m  699.9999m  218.2532m 
 -624.20678m  699.9999m  218.2532m 
 -624.10678m  699.9999m  218.2532m 
 -624.00678m  699.9999m  218.2532m 
 -623.90678m  699.9999m  218.2532m 
 -623.80678m  699.9999m  218.2532m 
 -623.70678m  699.9999m  218.2532m 
 -623.60678m  699.9999m  218.2532m 
 -623.50678m  699.9999m  218.2532m 
 -623.40678m  699.9999m  218.2532m 
 -623.30678m  699.9999m  218.2532m 
 -623.20678m  699.9999m  218.2532m 
 -623.10678m  699.9999m  218.2532m 
 -623.00678m  699.9999m  218.2532m 
 -622.90678m  699.9999m  218.2532m 
 -622.80678m  699.9999m  218.2532m 
 -622.70678m  699.9999m  218.2532m 
 -622.60678m  699.9999m  218.2532m 
 -622.50678m  699.9999m  218.2532m 
 -622.40678m  699.9999m  218.2532m 
 -622.30678m  699.9999m  218.2532m 
 -622.20678m  699.9999m  218.2532m 
 -622.10678m  699.9999m  218.2532m 
 -622.00678m  699.9999m  218.2532m 
 -621.90678m  699.9999m  218.2532m 
 -621.80678m  699.9999m  218.2532m 
 -621.70678m  699.9999m  218.2532m 
 -621.60678m  699.9999m  218.2532m 
 -621.50678m  699.9999m  218.2532m 
 -621.40678m  699.9999m  218.2532m 
 -621.30678m  699.9999m  218.2532m 
 -621.20678m  699.9999m  218.2532m 
 -621.10678m  699.9999m  218.2532m 
 -621.00678m  699.9999m  218.2532m 
 -620.90678m  699.9999m  218.2532m 
 -620.80678m  699.9999m  218.2532m 
 -620.70678m  699.9999m  218.2532m 
 -620.60678m  699.9999m  218.2532m 
 -620.50678m  699.9999m  218.2532m 
 -620.40678m  699.9999m  218.2532m 
 -620.30678m  699.9999m  218.2532m 
 -620.20678m  699.9999m  218.2532m 
 -620.10678m  699.9999m  218.2532m 
 -620.00678m  699.9999m  218.2532m 
 -619.90678m  699.9999m  218.2532m 
 -619.80678m  699.9999m  218.2532m 
 -619.70678m  699.9999m  218.2532m 
 -619.60678m  699.9999m  218.2532m 
 -619.50678m  699.9999m  218.2532m 
 -619.40678m  699.9999m  218.2532m 
 -619.30678m  699.9999m  218.2532m 
 -619.20678m  699.9999m  218.2532m 
 -619.10678m  699.9999m  218.2532m 
 -619.00678m  699.9999m  218.2532m 
 -618.90678m  699.9999m  218.2532m 
 -618.80678m  699.9999m  218.2532m 
 -618.70678m  699.9999m  218.2532m 
 -618.60678m  699.9999m  218.2532m 
 -618.50678m  699.9999m  218.2532m 
 -618.40678m  699.9999m  218.2532m 
 -618.30678m  699.9999m  218.2532m 
 -618.20678m  699.9999m  218.2532m 
 -618.10678m  699.9999m  218.2532m 
 -618.00678m  699.9999m  218.2532m 
 -617.90678m  699.9999m  218.2532m 
 -617.80678m  699.9999m  218.2532m 
 -617.70678m  699.9999m  218.2532m 
 -617.60678m  699.9999m  218.2532m 
 -617.50678m  699.9999m  218.2532m 
 -617.40678m  699.9999m  218.2532m 
 -617.30678m  699.9999m  218.2532m 
 -617.20678m  699.9999m  218.2532m 
 -617.10678m  699.9999m  218.2532m 
 -617.00678m  699.9999m  218.2532m 
 -616.90678m  699.9999m  218.2532m 
 -616.80678m  699.9999m  218.2532m 
 -616.70678m  699.9999m  218.2532m 
 -616.60678m  699.9999m  218.2532m 
 -616.50678m  699.9999m  218.2532m 
 -616.40678m  699.9999m  218.2532m 
 -616.30678m  699.9999m  218.2532m 
 -616.20678m  699.9999m  218.2532m 
 -616.10678m  699.9999m  218.2532m 
 -616.00678m  699.9999m  218.2532m 
 -615.90678m  699.9999m  218.2532m 
 -615.80678m  699.9999m  218.2532m 
 -615.70678m  699.9999m  218.2532m 
 -615.60678m  699.9999m  218.2532m 
 -615.50678m  699.9999m  218.2532m 
 -615.40678m  699.9999m  218.2532m 
 -615.30678m  699.9999m  218.2532m 
 -615.20678m  699.9999m  218.2532m 
 -615.10678m  699.9999m  218.2532m 
 -615.00678m  699.9999m  218.2532m 
 -614.90678m  699.9999m  218.2532m 
 -614.80678m  699.9999m  218.2532m 
 -614.70678m  699.9999m  218.2532m 
 -614.60678m  699.9999m  218.2532m 
 -614.50678m  699.9999m  218.2532m 
 -614.40678m  699.9999m  218.2532m 
 -614.30678m  699.9999m  218.2532m 
 -614.20678m  699.9999m  218.2532m 
 -614.10678m  699.9999m  218.2532m 
 -614.00678m  699.9999m  218.2532m 
 -613.90678m  699.9999m  218.2532m 
 -613.80678m  699.9999m  218.2532m 
 -613.70678m  699.9999m  218.2532m 
 -613.60678m  699.9999m  218.2532m 
 -613.50678m  699.9999m  218.2532m 
 -613.40678m  699.9999m  218.2532m 
 -613.30678m  699.9999m  218.2532m 
 -613.20678m  699.9999m  218.2532m 
 -613.10678m  699.9999m  218.2532m 
 -613.00678m  699.9999m  218.2532m 
 -612.90678m  699.9999m  218.2532m 
 -612.80678m  699.9999m  218.2532m 
 -612.70678m  699.9999m  218.2532m 
 -612.60678m  699.9999m  218.2532m 
 -612.50678m  699.9999m  218.2532m 
 -612.40678m  699.9999m  218.2532m 
 -612.30678m  699.9999m  218.2532m 
 -612.20678m  699.9999m  218.2532m 
 -612.10678m  699.9999m  218.2532m 
 -612.00678m  699.9999m  218.2532m 
 -611.90678m  699.9999m  218.2532m 
 -611.80678m  699.9999m  218.2532m 
 -611.70678m  699.9999m  218.2532m 
 -611.60678m  699.9999m  218.2532m 
 -611.50678m  699.9999m  218.2532m 
 -611.40678m  699.9999m  218.2532m 
 -611.30678m  699.9999m  218.2532m 
 -611.20678m  699.9999m  218.2532m 
 -611.10678m  699.9999m  218.2532m 
 -611.00678m  699.9999m  218.2532m 
 -610.90678m  699.9999m  218.2532m 
 -610.80678m  699.9999m  218.2532m 
 -610.70678m  699.9999m  218.2532m 
 -610.60678m  699.9999m  218.2532m 
 -610.50678m  699.9999m  218.2532m 
 -610.40678m  699.9999m  218.2532m 
 -610.30678m  699.9999m  218.2532m 
 -610.20678m  699.9999m  218.2532m 
 -610.10678m  699.9999m  218.2532m 
 -610.00678m  699.9999m  218.2532m 
 -609.90678m  699.9999m  218.2532m 
 -609.80678m  699.9999m  218.2532m 
 -609.70678m  699.9999m  218.2532m 
 -609.60678m  699.9999m  218.2532m 
 -609.50678m  699.9999m  218.2532m 
 -609.40678m  699.9999m  218.2532m 
 -609.30678m  699.9999m  218.2532m 
 -609.20678m  699.9999m  218.2532m 
 -609.10678m  699.9999m  218.2532m 
 -609.00678m  699.9999m  218.2532m 
 -608.90678m  699.9999m  218.2532m 
 -608.80678m  699.9999m  218.2532m 
 -608.70678m  699.9999m  218.2532m 
 -608.60678m  699.9999m  218.2532m 
 -608.50678m  699.9999m  218.2532m 
 -608.40678m  699.9999m  218.2532m 
 -608.30678m  699.9999m  218.2532m 
 -608.20678m  699.9999m  218.2532m 
 -608.10678m  699.9999m  218.2532m 
 -608.00678m  699.9999m  218.2532m 
 -607.90678m  699.9999m  218.2532m 
 -607.80678m  699.9999m  218.2532m 
 -607.70678m  699.9999m  218.2532m 
 -607.60678m  699.9999m  218.2532m 
 -607.50678m  699.9999m  218.2532m 
 -607.40678m  699.9999m  218.2532m 
 -607.30678m  699.9999m  218.2532m 
 -607.20678m  699.9999m  218.2532m 
 -607.10678m  699.9999m  218.2532m 
 -607.00678m  699.9999m  218.2532m 
 -606.90678m  699.9999m  218.2532m 
 -606.80678m  699.9999m  218.2532m 
 -606.70678m  699.9999m  218.2532m 
 -606.60678m  699.9999m  218.2532m 
 -606.50678m  699.9999m  218.2532m 
 -606.40678m  699.9999m  218.2532m 
 -606.30678m  699.9999m  218.2532m 
 -606.20678m  699.9999m  218.2532m 
 -606.10678m  699.9999m  218.2532m 
 -606.00678m  699.9999m  218.2532m 
 -605.90678m  699.9999m  218.2532m 
 -605.80678m  699.9999m  218.2532m 
 -605.70678m  699.9999m  218.2532m 
 -605.60678m  699.9999m  218.2532m 
 -605.50678m  699.9999m  218.2532m 
 -605.40678m  699.9999m  218.2532m 
 -605.30678m  699.9999m  218.2532m 
 -605.20678m  699.9999m  218.2532m 
 -605.10678m  699.9999m  218.2532m 
 -605.00678m  699.9999m  218.2532m 
 -604.90678m  699.9999m  218.2532m 
 -604.80678m  699.9999m  218.2532m 
 -604.70678m  699.9999m  218.2532m 
 -604.60678m  699.9999m  218.2532m 
 -604.50678m  699.9999m  218.2532m 
 -604.40678m  699.9999m  218.2532m 
 -604.30678m  699.9999m  218.2532m 
 -604.20678m  699.9999m  218.2532m 
 -604.10678m  699.9999m  218.2532m 
 -604.00678m  699.9999m  218.2532m 
 -603.90678m  699.9999m  218.2532m 
 -603.80678m  699.9999m  218.2532m 
 -603.70678m  699.9999m  218.2532m 
 -603.60678m  699.9999m  218.2532m 
 -603.50678m  699.9999m  218.2532m 
 -603.40678m  699.9999m  218.2532m 
 -603.30678m  699.9999m  218.2532m 
 -603.20678m  699.9999m  218.2532m 
 -603.10678m  699.9999m  218.2532m 
 -603.00678m  699.9999m  218.2532m 
 -602.90678m  699.9999m  218.2532m 
 -602.80678m  699.9999m  218.2532m 
 -602.70678m  699.9999m  218.2532m 
 -602.60678m  699.9999m  218.2532m 
 -602.50678m  699.9999m  218.2532m 
 -602.40678m  699.9999m  218.2532m 
 -602.30678m  699.9999m  218.2532m 
 -602.20678m  699.9999m  218.2532m 
 -602.10678m  699.9999m  218.2532m 
 -602.00678m  699.9999m  218.2532m 
 -601.90678m  699.9999m  218.2532m 
 -601.80678m  699.9999m  218.2532m 
 -601.70678m  699.9999m  218.2532m 
 -601.60678m  699.9999m  218.2532m 
 -601.50678m  699.9999m  218.2532m 
 -601.40678m  699.9999m  218.2532m 
 -601.30678m  699.9999m  218.2532m 
 -601.20678m  699.9999m  218.2532m 
 -601.10678m  699.9999m  218.2532m 
 -601.00678m  699.9999m  218.2532m 
 -600.90678m  699.9999m  218.2532m 
 -600.80678m  699.9999m  218.2532m 
 -600.70678m  699.9999m  218.2532m 
 -600.60678m  699.9999m  218.2532m 
 -600.50678m  699.9999m  218.2532m 
 -600.40678m  699.9999m  218.2532m 
 -600.30678m  699.9999m  218.2532m 
 -600.20678m  699.9999m  218.2532m 
 -600.10678m  699.9999m  218.2532m 
 -600.00678m  699.9999m  218.2532m 
 -599.90678m  699.9999m  218.2532m 
 -599.80678m  699.9999m  218.2532m 
 -599.70678m  699.9999m  218.2532m 
 -599.60678m  699.9999m  218.2532m 
 -599.50678m  699.9999m  218.2532m 
 -599.40678m  699.9999m  218.2532m 
 -599.30678m  699.9999m  218.2532m 
 -599.20678m  699.9999m  218.2532m 
 -599.10678m  699.9999m  218.2532m 
 -599.00678m  699.9999m  218.2532m 
 -598.90678m  699.9999m  218.2532m 
 -598.80678m  699.9999m  218.2532m 
 -598.70678m  699.9999m  218.2532m 
 -598.60678m  699.9999m  218.2532m 
 -598.50678m  699.9999m  218.2532m 
 -598.40678m  699.9999m  218.2532m 
 -598.30678m  699.9999m  218.2532m 
 -598.20678m  699.9999m  218.2532m 
 -598.10678m  699.9999m  218.2532m 
 -598.00678m  699.9999m  218.2532m 
 -597.90678m  699.9999m  218.2532m 
 -597.80678m  699.9999m  218.2532m 
 -597.70678m  699.9999m  218.2532m 
 -597.60678m  699.9999m  218.2532m 
 -597.50678m  699.9999m  218.2532m 
 -597.40678m  699.9999m  218.2532m 
 -597.30678m  699.9999m  218.2532m 
 -597.20678m  699.9999m  218.2532m 
 -597.10678m  699.9999m  218.2532m 
 -597.00678m  699.9999m  218.2532m 
 -596.90678m  699.9999m  218.2532m 
 -596.80678m  699.9999m  218.2532m 
 -596.70678m  699.9999m  218.2532m 
 -596.60678m  699.9999m  218.2532m 
 -596.50678m  699.9999m  218.2532m 
 -596.40678m  699.9999m  218.2532m 
 -596.30678m  699.9999m  218.2532m 
 -596.20678m  699.9999m  218.2532m 
 -596.10678m  699.9999m  218.2532m 
 -596.00678m  699.9999m  218.2532m 
 -595.90678m  699.9999m  218.2532m 
 -595.80678m  699.9999m  218.2532m 
 -595.70678m  699.9999m  218.2532m 
 -595.60678m  699.9999m  218.2532m 
 -595.50678m  699.9999m  218.2532m 
 -595.40678m  699.9999m  218.2532m 
 -595.30678m  699.9999m  218.2532m 
 -595.20678m  699.9999m  218.2532m 
 -595.10678m  699.9999m  218.2532m 
 -595.00678m  699.9999m  218.2532m 
 -594.90678m  699.9999m  218.2532m 
 -594.80678m  699.9999m  218.2532m 
 -594.70678m  699.9999m  218.2532m 
 -594.60678m  699.9999m  218.2532m 
 -594.50678m  699.9999m  218.2532m 
 -594.40678m  699.9999m  218.2532m 
 -594.30678m  699.9999m  218.2532m 
 -594.20678m  699.9999m  218.2532m 
 -594.10678m  699.9999m  218.2532m 
 -594.00678m  699.9999m  218.2532m 
 -593.90678m  699.9999m  218.2532m 
 -593.80678m  699.9999m  218.2532m 
 -593.70678m  699.9999m  218.2532m 
 -593.60678m  699.9999m  218.2532m 
 -593.50678m  699.9999m  218.2532m 
 -593.40678m  699.9999m  218.2532m 
 -593.30678m  699.9999m  218.2532m 
 -593.20678m  699.9999m  218.2532m 
 -593.10678m  699.9999m  218.2532m 
 -593.00678m  699.9999m  218.2532m 
 -592.90678m  699.9999m  218.2532m 
 -592.80678m  699.9999m  218.2532m 
 -592.70678m  699.9999m  218.2532m 
 -592.60678m  699.9999m  218.2532m 
 -592.50678m  699.9999m  218.2532m 
 -592.40678m  699.9999m  218.2532m 
 -592.30678m  699.9999m  218.2532m 
 -592.20678m  699.9999m  218.2532m 
 -592.10678m  699.9999m  218.2532m 
 -592.00678m  699.9999m  218.2532m 
 -591.90678m  699.9999m  218.2532m 
 -591.80678m  699.9999m  218.2532m 
 -591.70678m  699.9999m  218.2532m 
 -591.60678m  699.9999m  218.2532m 
 -591.50678m  699.9999m  218.2532m 
 -591.40678m  699.9999m  218.2532m 
 -591.30678m  699.9999m  218.2532m 
 -591.20678m  699.9999m  218.2532m 
 -591.10678m  699.9999m  218.2532m 
 -591.00678m  699.9999m  218.2532m 
 -590.90678m  699.9999m  218.2532m 
 -590.80678m  699.9999m  218.2532m 
 -590.70678m  699.9999m  218.2532m 
 -590.60678m  699.9999m  218.2532m 
 -590.50678m  699.9999m  218.2532m 
 -590.40678m  699.9999m  218.2532m 
 -590.30678m  699.9999m  218.2532m 
 -590.20678m  699.9999m  218.2532m 
 -590.10678m  699.9999m  218.2532m 
 -590.00678m  699.9999m  218.2532m 
 -589.90678m  699.9999m  218.2532m 
 -589.80678m  699.9999m  218.2532m 
 -589.70678m  699.9999m  218.2532m 
 -589.60678m  699.9999m  218.2532m 
 -589.50678m  699.9999m  218.2532m 
 -589.40678m  699.9999m  218.2532m 
 -589.30678m  699.9999m  218.2532m 
 -589.20678m  699.9999m  218.2532m 
 -589.10678m  699.9999m  218.2532m 
 -589.00678m  699.9999m  218.2532m 
 -588.90678m  699.9999m  218.2532m 
 -588.80678m  699.9999m  218.2532m 
 -588.70678m  699.9999m  218.2532m 
 -588.60678m  699.9999m  218.2532m 
 -588.50678m  699.9999m  218.2532m 
 -588.40678m  699.9999m  218.2532m 
 -588.30678m  699.9999m  218.2532m 
 -588.20678m  699.9999m  218.2532m 
 -588.10678m  699.9999m  218.2532m 
 -588.00678m  699.9999m  218.2532m 
 -587.90678m  699.9999m  218.2532m 
 -587.80678m  699.9999m  218.2532m 
 -587.70678m  699.9999m  218.2532m 
 -587.60678m  699.9999m  218.2532m 
 -587.50678m  699.9999m  218.2532m 
 -587.40678m  699.9999m  218.2532m 
 -587.30678m  699.9999m  218.2532m 
 -587.20678m  699.9999m  218.2532m 
 -587.10678m  699.9999m  218.2532m 
 -587.00678m  699.9999m  218.2532m 
 -586.90678m  699.9999m  218.2532m 
 -586.80678m  699.9999m  218.2532m 
 -586.70678m  699.9999m  218.2532m 
 -586.60678m  699.9999m  218.2532m 
 -586.50678m  699.9999m  218.2532m 
 -586.40678m  699.9999m  218.2532m 
 -586.30678m  699.9999m  218.2532m 
 -586.20678m  699.9999m  218.2532m 
 -586.10678m  699.9999m  218.2532m 
 -586.00678m  699.9999m  218.2532m 
 -585.90678m  699.9999m  218.2532m 
 -585.80678m  699.9999m  218.2532m 
 -585.70678m  699.9999m  218.2532m 
 -585.60678m  699.9999m  218.2532m 
 -585.50678m  699.9999m  218.2532m 
 -585.40678m  699.9999m  218.2532m 
 -585.30678m  699.9999m  218.2532m 
 -585.20678m  699.9999m  218.2532m 
 -585.10678m  699.9999m  218.2532m 
 -585.00678m  699.9999m  218.2532m 
 -584.90678m  699.9999m  218.2532m 
 -584.80678m  699.9999m  218.2532m 
 -584.70678m  699.9999m  218.2532m 
 -584.60678m  699.9999m  218.2532m 
 -584.50678m  699.9999m  218.2532m 
 -584.40678m  699.9999m  218.2532m 
 -584.30678m  699.9999m  218.2532m 
 -584.20678m  699.9999m  218.2532m 
 -584.10678m  699.9999m  218.2532m 
 -584.00678m  699.9999m  218.2532m 
 -583.90678m  699.9999m  218.2532m 
 -583.80678m  699.9999m  218.2532m 
 -583.70678m  699.9999m  218.2532m 
 -583.60678m  699.9999m  218.2532m 
 -583.50678m  699.9999m  218.2532m 
 -583.40678m  699.9999m  218.2532m 
 -583.30678m  699.9999m  218.2532m 
 -583.20678m  699.9999m  218.2532m 
 -583.10678m  699.9999m  218.2532m 
 -583.00678m  699.9999m  218.2532m 
 -582.90678m  699.9999m  218.2532m 
 -582.80678m  699.9999m  218.2532m 
 -582.70678m  699.9999m  218.2532m 
 -582.60678m  699.9999m  218.2532m 
 -582.50678m  699.9999m  218.2532m 
 -582.40678m  699.9999m  218.2532m 
 -582.30678m  699.9999m  218.2532m 
 -582.20678m  699.9999m  218.2532m 
 -582.10678m  699.9999m  218.2532m 
 -582.00678m  699.9999m  218.2532m 
 -581.90678m  699.9999m  218.2532m 
 -581.80678m  699.9999m  218.2532m 
 -581.70678m  699.9999m  218.2532m 
 -581.60678m  699.9999m  218.2532m 
 -581.50678m  699.9999m  218.2532m 
 -581.40678m  699.9999m  218.2532m 
 -581.30678m  699.9999m  218.2532m 
 -581.20678m  699.9999m  218.2532m 
 -581.10678m  699.9999m  218.2532m 
 -581.00678m  699.9999m  218.2532m 
 -580.90678m  699.9999m  218.2532m 
 -580.80678m  699.9999m  218.2532m 
 -580.70678m  699.9999m  218.2532m 
 -580.60678m  699.9999m  218.2532m 
 -580.50678m  699.9999m  218.2532m 
 -580.40678m  699.9999m  218.2532m 
 -580.30678m  699.9999m  218.2532m 
 -580.20678m  699.9999m  218.2532m 
 -580.10678m  699.9999m  218.2532m 
 -580.00678m  699.9999m  218.2532m 
 -579.90678m  699.9999m  218.2532m 
 -579.80678m  699.9999m  218.2532m 
 -579.70678m  699.9999m  218.2532m 
 -579.60678m  699.9999m  218.2532m 
 -579.50678m  699.9999m  218.2532m 
 -579.40678m  699.9999m  218.2532m 
 -579.30678m  699.9999m  218.2532m 
 -579.20678m  699.9999m  218.2532m 
 -579.10678m  699.9999m  218.2532m 
 -579.00678m  699.9999m  218.2532m 
 -578.90678m  699.9999m  218.2532m 
 -578.80678m  699.9999m  218.2532m 
 -578.70678m  699.9999m  218.2532m 
 -578.60678m  699.9999m  218.2532m 
 -578.50678m  699.9999m  218.2532m 
 -578.40678m  699.9999m  218.2532m 
 -578.30678m  700.0000m  218.2532m 
 -578.20678m  700.0000m  218.2532m 
 -578.10678m  700.0000m  218.2532m 
 -578.00678m  700.0000m  218.2532m 
 -577.90678m  700.0000m  218.2532m 
 -577.80678m  700.0000m  218.2532m 
 -577.70678m  700.0000m  218.2532m 
 -577.60678m  700.0000m  218.2532m 
 -577.50678m  700.0000m  218.2532m 
 -577.40678m  700.0000m  218.2532m 
 -577.30678m  700.0000m  218.2532m 
 -577.20678m  700.0000m  218.2532m 
 -577.10678m  700.0000m  218.2532m 
 -577.00678m  700.0000m  218.2532m 
 -576.90678m  700.0000m  218.2532m 
 -576.80678m  700.0000m  218.2532m 
 -576.70678m  700.0000m  218.2532m 
 -576.60678m  700.0000m  218.2532m 
 -576.50678m  700.0000m  218.2532m 
 -576.40678m  700.0000m  218.2532m 
 -576.30678m  700.0000m  218.2532m 
 -576.20678m  700.0000m  218.2532m 
 -576.10678m  700.0000m  218.2532m 
 -576.00678m  700.0000m  218.2532m 
 -575.90678m  700.0000m  218.2532m 
 -575.80678m  700.0000m  218.2532m 
 -575.70678m  700.0000m  218.2532m 
 -575.60678m  700.0000m  218.2532m 
 -575.50678m  700.0000m  218.2532m 
 -575.40678m  700.0000m  218.2532m 
 -575.30678m  700.0000m  218.2532m 
 -575.20678m  700.0000m  218.2532m 
 -575.10678m  700.0000m  218.2532m 
 -575.00678m  700.0000m  218.2532m 
 -574.90678m  700.0000m  218.2532m 
 -574.80678m  700.0000m  218.2532m 
 -574.70678m  700.0000m  218.2532m 
 -574.60678m  700.0000m  218.2532m 
 -574.50678m  700.0000m  218.2532m 
 -574.40678m  700.0000m  218.2532m 
 -574.30678m  700.0000m  218.2532m 
 -574.20678m  700.0000m  218.2532m 
 -574.10678m  700.0000m  218.2532m 
 -574.00678m  700.0000m  218.2532m 
 -573.90678m  700.0000m  218.2532m 
 -573.80678m  700.0000m  218.2532m 
 -573.70678m  700.0000m  218.2532m 
 -573.60678m  700.0000m  218.2532m 
 -573.50678m  700.0000m  218.2532m 
 -573.40678m  700.0000m  218.2532m 
 -573.30678m  700.0000m  218.2532m 
 -573.20678m  700.0000m  218.2532m 
 -573.10678m  700.0000m  218.2532m 
 -573.00678m  700.0000m  218.2532m 
 -572.90678m  700.0000m  218.2532m 
 -572.80678m  700.0000m  218.2532m 
 -572.70678m  700.0000m  218.2532m 
 -572.60678m  700.0000m  218.2532m 
 -572.50678m  700.0000m  218.2532m 
 -572.40678m  700.0000m  218.2532m 
 -572.30678m  700.0000m  218.2532m 
 -572.20678m  700.0000m  218.2532m 
 -572.10678m  700.0000m  218.2532m 
 -572.00678m  700.0000m  218.2532m 
 -571.90678m  700.0000m  218.2532m 
 -571.80678m  700.0000m  218.2532m 
 -571.70678m  700.0000m  218.2532m 
 -571.60678m  700.0000m  218.2532m 
 -571.50678m  700.0000m  218.2532m 
 -571.40678m  700.0000m  218.2532m 
 -571.30678m  700.0000m  218.2532m 
 -571.20678m  700.0000m  218.2532m 
 -571.10678m  700.0000m  218.2532m 
 -571.00678m  700.0000m  218.2532m 
 -570.90678m  700.0000m  218.2532m 
 -570.80678m  700.0000m  218.2532m 
 -570.70678m  700.0000m  218.2532m 
 -570.60678m  700.0000m  218.2532m 
 -570.50678m  700.0000m  218.2532m 
 -570.40678m  700.0000m  218.2532m 
 -570.30678m  700.0000m  218.2532m 
 -570.20678m  700.0000m  218.2532m 
 -570.10678m  700.0000m  218.2532m 
 -570.00678m  700.0000m  218.2532m 
 -569.90678m  700.0000m  218.2532m 
 -569.80678m  700.0000m  218.2532m 
 -569.70678m  700.0000m  218.2532m 
 -569.60678m  700.0000m  218.2532m 
 -569.50678m  700.0000m  218.2532m 
 -569.40678m  700.0000m  218.2532m 
 -569.30678m  700.0000m  218.2532m 
 -569.20678m  700.0000m  218.2532m 
 -569.10678m  700.0000m  218.2532m 
 -569.00678m  700.0000m  218.2532m 
 -568.90678m  700.0000m  218.2532m 
 -568.80678m  700.0000m  218.2532m 
 -568.70678m  700.0000m  218.2532m 
 -568.60678m  700.0000m  218.2532m 
 -568.50678m  700.0000m  218.2532m 
 -568.40678m  700.0000m  218.2532m 
 -568.30678m  700.0000m  218.2532m 
 -568.20678m  700.0000m  218.2532m 
 -568.10678m  700.0000m  218.2532m 
 -568.00678m  700.0000m  218.2532m 
 -567.90678m  700.0000m  218.2532m 
 -567.80678m  700.0000m  218.2532m 
 -567.70678m  700.0000m  218.2532m 
 -567.60678m  700.0000m  218.2532m 
 -567.50678m  700.0000m  218.2532m 
 -567.40678m  700.0000m  218.2532m 
 -567.30678m  700.0000m  218.2532m 
 -567.20678m  700.0000m  218.2532m 
 -567.10678m  700.0000m  218.2532m 
 -567.00678m  700.0000m  218.2532m 
 -566.90678m  700.0000m  218.2532m 
 -566.80678m  700.0000m  218.2532m 
 -566.70678m  700.0000m  218.2532m 
 -566.60678m  700.0000m  218.2532m 
 -566.50678m  700.0000m  218.2532m 
 -566.40678m  700.0000m  218.2532m 
 -566.30678m  700.0000m  218.2532m 
 -566.20678m  700.0000m  218.2532m 
 -566.10678m  700.0000m  218.2532m 
 -566.00678m  700.0000m  218.2532m 
 -565.90678m  700.0000m  218.2532m 
 -565.80678m  700.0000m  218.2532m 
 -565.70678m  700.0000m  218.2532m 
 -565.60678m  700.0000m  218.2532m 
 -565.50678m  700.0000m  218.2532m 
 -565.40678m  700.0000m  218.2532m 
 -565.30678m  700.0000m  218.2532m 
 -565.20678m  700.0000m  218.2532m 
 -565.10678m  700.0000m  218.2532m 
 -565.00678m  700.0000m  218.2532m 
 -564.90678m  700.0000m  218.2532m 
 -564.80678m  700.0000m  218.2532m 
 -564.70678m  700.0000m  218.2532m 
 -564.60678m  700.0000m  218.2532m 
 -564.50678m  700.0000m  218.2532m 
 -564.40678m  700.0000m  218.2532m 
 -564.30678m  700.0000m  218.2532m 
 -564.20678m  700.0000m  218.2532m 
 -564.10678m  700.0000m  218.2532m 
 -564.00678m  700.0000m  218.2532m 
 -563.90678m  700.0000m  218.2532m 
 -563.80678m  700.0000m  218.2532m 
 -563.70678m  700.0000m  218.2532m 
 -563.60678m  700.0000m  218.2532m 
 -563.50678m  700.0000m  218.2532m 
 -563.40678m  700.0000m  218.2532m 
 -563.30678m  700.0000m  218.2532m 
 -563.20678m  700.0000m  218.2532m 
 -563.10678m  700.0000m  218.2532m 
 -563.00678m  700.0000m  218.2532m 
 -562.90678m  700.0000m  218.2532m 
 -562.80678m  700.0000m  218.2532m 
 -562.70678m  700.0000m  218.2532m 
 -562.60678m  700.0000m  218.2532m 
 -562.50678m  700.0000m  218.2532m 
 -562.40678m  700.0000m  218.2532m 
 -562.30678m  700.0000m  218.2532m 
 -562.20678m  700.0000m  218.2532m 
 -562.10678m  700.0000m  218.2532m 
 -562.00678m  700.0000m  218.2532m 
 -561.90678m  700.0000m  218.2532m 
 -561.80678m  700.0000m  218.2532m 
 -561.70678m  700.0000m  218.2532m 
 -561.60678m  700.0000m  218.2532m 
 -561.50678m  700.0000m  218.2532m 
 -561.40678m  700.0000m  218.2532m 
 -561.30678m  700.0000m  218.2532m 
 -561.20678m  700.0000m  218.2532m 
 -561.10678m  700.0000m  218.2532m 
 -561.00678m  700.0000m  218.2532m 
 -560.90678m  700.0000m  218.2532m 
 -560.80678m  700.0000m  218.2532m 
 -560.70678m  700.0000m  218.2532m 
 -560.60678m  700.0000m  218.2532m 
 -560.50678m  700.0000m  218.2532m 
 -560.40678m  700.0000m  218.2532m 
 -560.30678m  700.0000m  218.2532m 
 -560.20678m  700.0000m  218.2532m 
 -560.10678m  700.0000m  218.2532m 
 -560.00678m  700.0000m  218.2532m 
 -559.90678m  700.0000m  218.2532m 
 -559.80678m  700.0000m  218.2532m 
 -559.70678m  700.0000m  218.2532m 
 -559.60678m  700.0000m  218.2532m 
 -559.50678m  700.0000m  218.2532m 
 -559.40678m  700.0000m  218.2532m 
 -559.30678m  700.0000m  218.2532m 
 -559.20678m  700.0000m  218.2532m 
 -559.10678m  700.0000m  218.2532m 
 -559.00678m  700.0000m  218.2532m 
 -558.90678m  700.0000m  218.2532m 
 -558.80678m  700.0000m  218.2532m 
 -558.70678m  700.0000m  218.2532m 
 -558.60678m  700.0000m  218.2532m 
 -558.50678m  700.0000m  218.2532m 
 -558.40678m  700.0000m  218.2532m 
 -558.30678m  700.0000m  218.2532m 
 -558.20678m  700.0000m  218.2532m 
 -558.10678m  700.0000m  218.2532m 
 -558.00678m  700.0000m  218.2532m 
 -557.90678m  700.0000m  218.2532m 
 -557.80678m  700.0000m  218.2532m 
 -557.70678m  700.0000m  218.2532m 
 -557.60678m  700.0000m  218.2532m 
 -557.50678m  700.0000m  218.2532m 
 -557.40678m  700.0000m  218.2532m 
 -557.30678m  700.0000m  218.2532m 
 -557.20678m  700.0000m  218.2532m 
 -557.10678m  700.0000m  218.2532m 
 -557.00678m  700.0000m  218.2532m 
 -556.90678m  700.0000m  218.2532m 
 -556.80678m  700.0000m  218.2532m 
 -556.70678m  700.0000m  218.2532m 
 -556.60678m  700.0000m  218.2532m 
 -556.50678m  700.0000m  218.2532m 
 -556.40678m  700.0000m  218.2532m 
 -556.30678m  700.0000m  218.2532m 
 -556.20678m  700.0000m  218.2532m 
 -556.10678m  700.0000m  218.2532m 
 -556.00678m  700.0000m  218.2532m 
 -555.90678m  700.0000m  218.2532m 
 -555.80678m  700.0000m  218.2532m 
 -555.70678m  700.0000m  218.2532m 
 -555.60678m  700.0000m  218.2532m 
 -555.50678m  700.0000m  218.2532m 
 -555.40678m  700.0000m  218.2532m 
 -555.30678m  700.0000m  218.2532m 
 -555.20678m  700.0000m  218.2532m 
 -555.10678m  700.0000m  218.2532m 
 -555.00678m  700.0000m  218.2532m 
 -554.90678m  700.0000m  218.2532m 
 -554.80678m  700.0000m  218.2532m 
 -554.70678m  700.0000m  218.2532m 
 -554.60678m  700.0000m  218.2532m 
 -554.50678m  700.0000m  218.2532m 
 -554.40678m  700.0000m  218.2532m 
 -554.30678m  700.0000m  218.2532m 
 -554.20678m  700.0000m  218.2532m 
 -554.10678m  700.0000m  218.2532m 
 -554.00678m  700.0000m  218.2532m 
 -553.90678m  700.0000m  218.2532m 
 -553.80678m  700.0000m  218.2532m 
 -553.70678m  700.0000m  218.2532m 
 -553.60678m  700.0000m  218.2532m 
 -553.50678m  700.0000m  218.2532m 
 -553.40678m  700.0000m  218.2532m 
 -553.30678m  700.0000m  218.2532m 
 -553.20678m  700.0000m  218.2532m 
 -553.10678m  700.0000m  218.2532m 
 -553.00678m  700.0000m  218.2532m 
 -552.90678m  700.0000m  218.2532m 
 -552.80678m  700.0000m  218.2532m 
 -552.70678m  700.0000m  218.2532m 
 -552.60678m  700.0000m  218.2532m 
 -552.50678m  700.0000m  218.2532m 
 -552.40678m  700.0000m  218.2532m 
 -552.30678m  700.0000m  218.2532m 
 -552.20678m  700.0000m  218.2532m 
 -552.10678m  700.0000m  218.2532m 
 -552.00678m  700.0000m  218.2532m 
 -551.90678m  700.0000m  218.2532m 
 -551.80678m  700.0000m  218.2532m 
 -551.70678m  700.0000m  218.2532m 
 -551.60678m  700.0000m  218.2532m 
 -551.50678m  700.0000m  218.2532m 
 -551.40678m  700.0000m  218.2532m 
 -551.30678m  700.0000m  218.2532m 
 -551.20678m  700.0000m  218.2532m 
 -551.10678m  700.0000m  218.2532m 
 -551.00678m  700.0000m  218.2532m 
 -550.90678m  700.0000m  218.2532m 
 -550.80678m  700.0000m  218.2532m 
 -550.70678m  700.0000m  218.2532m 
 -550.60678m  700.0000m  218.2532m 
 -550.50678m  700.0000m  218.2532m 
 -550.40678m  700.0000m  218.2532m 
 -550.30678m  700.0000m  218.2532m 
 -550.20678m  700.0000m  218.2532m 
 -550.10678m  700.0000m  218.2532m 
 -550.00678m  700.0000m  218.2532m 
 -549.90678m  700.0000m  218.2532m 
 -549.80678m  700.0000m  218.2532m 
 -549.70678m  700.0000m  218.2532m 
 -549.60678m  700.0000m  218.2532m 
 -549.50678m  700.0000m  218.2532m 
 -549.40678m  700.0000m  218.2532m 
 -549.30678m  700.0000m  218.2532m 
 -549.20678m  700.0000m  218.2532m 
 -549.10678m  700.0000m  218.2532m 
 -549.00678m  700.0000m  218.2532m 
 -548.90678m  700.0000m  218.2532m 
 -548.80678m  700.0000m  218.2532m 
 -548.70678m  700.0000m  218.2532m 
 -548.60678m  700.0000m  218.2532m 
 -548.50678m  700.0000m  218.2532m 
 -548.40678m  700.0000m  218.2532m 
 -548.30678m  700.0000m  218.2532m 
 -548.20678m  700.0000m  218.2532m 
 -548.10678m  700.0000m  218.2532m 
 -548.00678m  700.0000m  218.2532m 
 -547.90678m  700.0000m  218.2532m 
 -547.80678m  700.0000m  218.2532m 
 -547.70678m  700.0000m  218.2532m 
 -547.60678m  700.0000m  218.2532m 
 -547.50678m  700.0000m  218.2532m 
 -547.40678m  700.0000m  218.2532m 
 -547.30678m  700.0000m  218.2532m 
 -547.20678m  700.0000m  218.2532m 
 -547.10678m  700.0000m  218.2532m 
 -547.00678m  700.0000m  218.2532m 
 -546.90678m  700.0000m  218.2532m 
 -546.80678m  700.0000m  218.2532m 
 -546.70678m  700.0000m  218.2532m 
 -546.60678m  700.0000m  218.2532m 
 -546.50678m  700.0000m  218.2532m 
 -546.40678m  700.0000m  218.2532m 
 -546.30678m  700.0000m  218.2532m 
 -546.20678m  700.0000m  218.2532m 
 -546.10678m  700.0000m  218.2532m 
 -546.00678m  700.0000m  218.2532m 
 -545.90678m  700.0000m  218.2532m 
 -545.80678m  700.0000m  218.2532m 
 -545.70678m  700.0000m  218.2532m 
 -545.60678m  700.0000m  218.2532m 
 -545.50678m  700.0000m  218.2532m 
 -545.40678m  700.0000m  218.2532m 
 -545.30678m  700.0000m  218.2532m 
 -545.20678m  700.0000m  218.2532m 
 -545.10678m  700.0000m  218.2532m 
 -545.00678m  700.0000m  218.2532m 
 -544.90678m  700.0000m  218.2532m 
 -544.80678m  700.0000m  218.2532m 
 -544.70678m  700.0000m  218.2532m 
 -544.60678m  700.0000m  218.2532m 
 -544.50678m  700.0000m  218.2532m 
 -544.40678m  700.0000m  218.2532m 
 -544.30678m  700.0000m  218.2532m 
 -544.20678m  700.0000m  218.2532m 
 -544.10678m  700.0000m  218.2532m 
 -544.00678m  700.0000m  218.2532m 
 -543.90678m  700.0000m  218.2532m 
 -543.80678m  700.0000m  218.2532m 
 -543.70678m  700.0000m  218.2532m 
 -543.60678m  700.0000m  218.2532m 
 -543.50678m  700.0000m  218.2532m 
 -543.40678m  700.0000m  218.2532m 
 -543.30678m  700.0000m  218.2532m 
 -543.20678m  700.0000m  218.2532m 
 -543.10678m  700.0000m  218.2532m 
 -543.00678m  700.0000m  218.2532m 
 -542.90678m  700.0000m  218.2532m 
 -542.80678m  700.0000m  218.2532m 
 -542.70678m  700.0000m  218.2532m 
 -542.60678m  700.0000m  218.2532m 
 -542.50678m  700.0000m  218.2532m 
 -542.40678m  700.0000m  218.2532m 
 -542.30678m  700.0000m  218.2532m 
 -542.20678m  700.0000m  218.2532m 
 -542.10678m  700.0000m  218.2532m 
 -542.00678m  700.0000m  218.2532m 
 -541.90678m  700.0000m  218.2532m 
 -541.80678m  700.0000m  218.2532m 
 -541.70678m  700.0000m  218.2532m 
 -541.60678m  700.0000m  218.2532m 
 -541.50678m  700.0000m  218.2532m 
 -541.40678m  700.0000m  218.2532m 
 -541.30678m  700.0000m  218.2532m 
 -541.20678m  700.0000m  218.2532m 
 -541.10678m  700.0000m  218.2532m 
 -541.00678m  700.0000m  218.2532m 
 -540.90678m  700.0000m  218.2532m 
 -540.80678m  700.0000m  218.2532m 
 -540.70678m  700.0000m  218.2532m 
 -540.60678m  700.0000m  218.2532m 
 -540.50678m  700.0000m  218.2532m 
 -540.40678m  700.0000m  218.2532m 
 -540.30678m  700.0000m  218.2532m 
 -540.20678m  700.0000m  218.2532m 
 -540.10678m  700.0000m  218.2532m 
 -540.00678m  700.0000m  218.2532m 
 -539.90678m  700.0000m  218.2532m 
 -539.80678m  700.0000m  218.2532m 
 -539.70678m  700.0000m  218.2532m 
 -539.60678m  700.0000m  218.2532m 
 -539.50678m  700.0000m  218.2532m 
 -539.40678m  700.0000m  218.2532m 
 -539.30678m  700.0000m  218.2532m 
 -539.20678m  700.0000m  218.2532m 
 -539.10678m  700.0000m  218.2532m 
 -539.00678m  700.0000m  218.2532m 
 -538.90678m  700.0000m  218.2532m 
 -538.80678m  700.0000m  218.2532m 
 -538.70678m  700.0000m  218.2532m 
 -538.60678m  700.0000m  218.2532m 
 -538.50678m  700.0000m  218.2532m 
 -538.40678m  700.0000m  218.2532m 
 -538.30678m  700.0000m  218.2532m 
 -538.20678m  700.0000m  218.2532m 
 -538.10678m  700.0000m  218.2532m 
 -538.00678m  700.0000m  218.2532m 
 -537.90678m  700.0000m  218.2532m 
 -537.80678m  700.0000m  218.2532m 
 -537.70678m  700.0000m  218.2532m 
 -537.60678m  700.0000m  218.2532m 
 -537.50678m  700.0000m  218.2532m 
 -537.40678m  700.0000m  218.2532m 
 -537.30678m  700.0000m  218.2532m 
 -537.20678m  700.0000m  218.2532m 
 -537.10678m  700.0000m  218.2532m 
 -537.00678m  700.0000m  218.2532m 
 -536.90678m  700.0000m  218.2532m 
 -536.80678m  700.0000m  218.2532m 
 -536.70678m  700.0000m  218.2532m 
 -536.60678m  700.0000m  218.2532m 
 -536.50678m  700.0000m  218.2532m 
 -536.40678m  700.0000m  218.2532m 
 -536.30678m  700.0000m  218.2532m 
 -536.20678m  700.0000m  218.2532m 
 -536.10678m  700.0000m  218.2532m 
 -536.00678m  700.0000m  218.2532m 
 -535.90678m  700.0000m  218.2532m 
 -535.80678m  700.0000m  218.2532m 
 -535.70678m  700.0000m  218.2532m 
 -535.60678m  700.0000m  218.2532m 
 -535.50678m  700.0000m  218.2532m 
 -535.40678m  700.0000m  218.2532m 
 -535.30678m  700.0000m  218.2532m 
 -535.20678m  700.0000m  218.2532m 
 -535.10678m  700.0000m  218.2532m 
 -535.00678m  700.0000m  218.2532m 
 -534.90678m  700.0000m  218.2532m 
 -534.80678m  700.0000m  218.2532m 
 -534.70678m  700.0000m  218.2532m 
 -534.60678m  700.0000m  218.2532m 
 -534.50678m  700.0000m  218.2532m 
 -534.40678m  700.0000m  218.2532m 
 -534.30678m  700.0000m  218.2532m 
 -534.20678m  700.0000m  218.2532m 
 -534.10678m  700.0000m  218.2532m 
 -534.00678m  700.0000m  218.2532m 
 -533.90678m  700.0000m  218.2532m 
 -533.80678m  700.0000m  218.2532m 
 -533.70678m  700.0000m  218.2532m 
 -533.60678m  700.0000m  218.2532m 
 -533.50678m  700.0000m  218.2532m 
 -533.40678m  700.0000m  218.2532m 
 -533.30678m  700.0000m  218.2532m 
 -533.20678m  700.0000m  218.2532m 
 -533.10678m  700.0000m  218.2532m 
 -533.00678m  700.0000m  218.2532m 
 -532.90678m  700.0000m  218.2532m 
 -532.80678m  700.0000m  218.2532m 
 -532.70678m  700.0000m  218.2532m 
 -532.60678m  700.0000m  218.2532m 
 -532.50678m  700.0000m  218.2532m 
 -532.40678m  700.0000m  218.2532m 
 -532.30678m  700.0000m  218.2532m 
 -532.20678m  700.0000m  218.2532m 
 -532.10678m  700.0000m  218.2532m 
 -532.00678m  700.0000m  218.2532m 
 -531.90678m  700.0000m  218.2532m 
 -531.80678m  700.0000m  218.2532m 
 -531.70678m  700.0000m  218.2532m 
 -531.60678m  700.0000m  218.2532m 
 -531.50678m  700.0000m  218.2532m 
 -531.40678m  700.0000m  218.2532m 
 -531.30678m  700.0000m  218.2532m 
 -531.20678m  700.0000m  218.2532m 
 -531.10678m  700.0000m  218.2532m 
 -531.00678m  700.0000m  218.2532m 
 -530.90678m  700.0000m  218.2532m 
 -530.80678m  700.0000m  218.2532m 
 -530.70678m  700.0000m  218.2532m 
 -530.60678m  700.0000m  218.2532m 
 -530.50678m  700.0000m  218.2532m 
 -530.40678m  700.0000m  218.2532m 
 -530.30678m  700.0000m  218.2532m 
 -530.20678m  700.0000m  218.2532m 
 -530.10678m  700.0000m  218.2532m 
 -530.00678m  700.0000m  218.2532m 
 -529.90678m  700.0000m  218.2532m 
 -529.80678m  700.0000m  218.2532m 
 -529.70678m  700.0000m  218.2532m 
 -529.60678m  700.0000m  218.2532m 
 -529.50678m  700.0000m  218.2532m 
 -529.40678m  700.0000m  218.2532m 
 -529.30678m  700.0000m  218.2532m 
 -529.20678m  700.0000m  218.2532m 
 -529.10678m  700.0000m  218.2532m 
 -529.00678m  700.0000m  218.2532m 
 -528.90678m  700.0000m  218.2532m 
 -528.80678m  700.0000m  218.2532m 
 -528.70678m  700.0000m  218.2532m 
 -528.60678m  700.0000m  218.2532m 
 -528.50678m  700.0000m  218.2532m 
 -528.40678m  700.0000m  218.2532m 
 -528.30678m  700.0000m  218.2532m 
 -528.20678m  700.0000m  218.2532m 
 -528.10678m  700.0000m  218.2532m 
 -528.00678m  700.0000m  218.2532m 
 -527.90678m  700.0000m  218.2532m 
 -527.80678m  700.0000m  218.2532m 
 -527.70678m  700.0000m  218.2532m 
 -527.60678m  700.0000m  218.2532m 
 -527.50678m  700.0000m  218.2532m 
 -527.40678m  700.0000m  218.2532m 
 -527.30678m  700.0000m  218.2532m 
 -527.20678m  700.0000m  218.2532m 
 -527.10678m  700.0000m  218.2532m 
 -527.00678m  700.0000m  218.2532m 
 -526.90678m  700.0000m  218.2532m 
 -526.80678m  700.0000m  218.2532m 
 -526.70678m  700.0000m  218.2532m 
 -526.60678m  700.0000m  218.2532m 
 -526.50678m  700.0000m  218.2532m 
 -526.40678m  700.0000m  218.2532m 
 -526.30678m  700.0000m  218.2532m 
 -526.20678m  700.0000m  218.2532m 
 -526.10678m  700.0000m  218.2532m 
 -526.00678m  700.0000m  218.2532m 
 -525.90678m  700.0000m  218.2532m 
 -525.80678m  700.0000m  218.2532m 
 -525.70678m  700.0000m  218.2532m 
 -525.60678m  700.0000m  218.2532m 
 -525.50678m  700.0000m  218.2532m 
 -525.40678m  700.0000m  218.2532m 
 -525.30678m  700.0000m  218.2532m 
 -525.20678m  700.0000m  218.2532m 
 -525.10678m  700.0000m  218.2532m 
 -525.00678m  700.0000m  218.2532m 
 -524.90678m  700.0000m  218.2532m 
 -524.80678m  700.0000m  218.2532m 
 -524.70678m  700.0000m  218.2532m 
 -524.60678m  700.0000m  218.2532m 
 -524.50678m  700.0000m  218.2532m 
 -524.40678m  700.0000m  218.2532m 
 -524.30678m  700.0000m  218.2532m 
 -524.20678m  700.0000m  218.2532m 
 -524.10678m  700.0000m  218.2532m 
 -524.00678m  700.0000m  218.2532m 
 -523.90678m  700.0000m  218.2532m 
 -523.80678m  700.0000m  218.2532m 
 -523.70678m  700.0000m  218.2532m 
 -523.60678m  700.0000m  218.2532m 
 -523.50678m  700.0000m  218.2532m 
 -523.40678m  700.0000m  218.2532m 
 -523.30678m  700.0000m  218.2532m 
 -523.20678m  700.0000m  218.2532m 
 -523.10678m  700.0000m  218.2532m 
 -523.00678m  700.0000m  218.2532m 
 -522.90678m  700.0000m  218.2532m 
 -522.80678m  700.0000m  218.2532m 
 -522.70678m  700.0000m  218.2532m 
 -522.60678m  700.0000m  218.2532m 
 -522.50678m  700.0000m  218.2532m 
 -522.40678m  700.0000m  218.2532m 
 -522.30678m  700.0000m  218.2532m 
 -522.20678m  700.0000m  218.2532m 
 -522.10678m  700.0000m  218.2532m 
 -522.00678m  700.0000m  218.2532m 
 -521.90678m  700.0000m  218.2532m 
 -521.80678m  700.0000m  218.2532m 
 -521.70678m  700.0000m  218.2532m 
 -521.60678m  700.0000m  218.2532m 
 -521.50678m  700.0000m  218.2532m 
 -521.40678m  700.0000m  218.2532m 
 -521.30678m  700.0000m  218.2532m 
 -521.20678m  700.0000m  218.2532m 
 -521.10678m  700.0000m  218.2532m 
 -521.00678m  700.0000m  218.2532m 
 -520.90678m  700.0000m  218.2532m 
 -520.80678m  700.0000m  218.2532m 
 -520.70678m  700.0000m  218.2532m 
 -520.60678m  700.0000m  218.2532m 
 -520.50678m  700.0000m  218.2532m 
 -520.40678m  700.0000m  218.2532m 
 -520.30678m  700.0000m  218.2532m 
 -520.20678m  700.0000m  218.2532m 
 -520.10678m  700.0000m  218.2532m 
 -520.00678m  700.0000m  218.2532m 
 -519.90678m  700.0000m  218.2532m 
 -519.80678m  700.0000m  218.2532m 
 -519.70678m  700.0000m  218.2532m 
 -519.60678m  700.0000m  218.2532m 
 -519.50678m  700.0000m  218.2532m 
 -519.40678m  700.0000m  218.2532m 
 -519.30678m  700.0000m  218.2532m 
 -519.20678m  700.0000m  218.2532m 
 -519.10678m  700.0000m  218.2532m 
 -519.00678m  700.0000m  218.2532m 
 -518.90678m  700.0000m  218.2532m 
 -518.80678m  700.0000m  218.2532m 
 -518.70678m  700.0000m  218.2532m 
 -518.60678m  700.0000m  218.2532m 
 -518.50678m  700.0000m  218.2532m 
 -518.40678m  700.0000m  218.2532m 
 -518.30678m  700.0000m  218.2532m 
 -518.20678m  700.0000m  218.2532m 
 -518.10678m  700.0000m  218.2532m 
 -518.00678m  700.0000m  218.2532m 
 -517.90678m  700.0000m  218.2532m 
 -517.80678m  700.0000m  218.2532m 
 -517.70678m  700.0000m  218.2532m 
 -517.60678m  700.0000m  218.2532m 
 -517.50678m  700.0000m  218.2532m 
 -517.40678m  700.0000m  218.2532m 
 -517.30678m  700.0000m  218.2532m 
 -517.20678m  700.0000m  218.2532m 
 -517.10678m  700.0000m  218.2532m 
 -517.00678m  700.0000m  218.2532m 
 -516.90678m  700.0000m  218.2532m 
 -516.80678m  700.0000m  218.2532m 
 -516.70678m  700.0000m  218.2532m 
 -516.60678m  700.0000m  218.2532m 
 -516.50678m  700.0000m  218.2532m 
 -516.40678m  700.0000m  218.2532m 
 -516.30678m  700.0000m  218.2532m 
 -516.20678m  700.0000m  218.2532m 
 -516.10678m  700.0000m  218.2532m 
 -516.00678m  700.0000m  218.2532m 
 -515.90678m  700.0000m  218.2532m 
 -515.80678m  700.0000m  218.2532m 
 -515.70678m  700.0000m  218.2532m 
 -515.60678m  700.0000m  218.2532m 
 -515.50678m  700.0000m  218.2532m 
 -515.40678m  700.0000m  218.2532m 
 -515.30678m  700.0000m  218.2532m 
 -515.20678m  700.0000m  218.2532m 
 -515.10678m  700.0000m  218.2532m 
 -515.00678m  700.0000m  218.2532m 
 -514.90678m  700.0000m  218.2532m 
 -514.80678m  700.0000m  218.2532m 
 -514.70678m  700.0000m  218.2532m 
 -514.60678m  700.0000m  218.2532m 
 -514.50678m  700.0000m  218.2532m 
 -514.40678m  700.0000m  218.2532m 
 -514.30678m  700.0000m  218.2532m 
 -514.20678m  700.0000m  218.2532m 
 -514.10678m  700.0000m  218.2532m 
 -514.00678m  700.0000m  218.2532m 
 -513.90678m  700.0000m  218.2532m 
 -513.80678m  700.0000m  218.2532m 
 -513.70678m  700.0000m  218.2532m 
 -513.60678m  700.0000m  218.2532m 
 -513.50678m  700.0000m  218.2532m 
 -513.40678m  700.0000m  218.2532m 
 -513.30678m  700.0000m  218.2532m 
 -513.20678m  700.0000m  218.2532m 
 -513.10678m  700.0000m  218.2532m 
 -513.00678m  700.0000m  218.2532m 
 -512.90678m  700.0000m  218.2532m 
 -512.80678m  700.0000m  218.2532m 
 -512.70678m  700.0000m  218.2532m 
 -512.60678m  700.0000m  218.2532m 
 -512.50678m  700.0000m  218.2532m 
 -512.40678m  700.0000m  218.2532m 
 -512.30678m  700.0000m  218.2532m 
 -512.20678m  700.0000m  218.2532m 
 -512.10678m  700.0000m  218.2532m 
 -512.00678m  700.0000m  218.2532m 
 -511.90678m  700.0000m  218.2532m 
 -511.80678m  700.0000m  218.2532m 
 -511.70678m  700.0000m  218.2532m 
 -511.60678m  700.0000m  218.2532m 
 -511.50678m  700.0000m  218.2532m 
 -511.40678m  700.0000m  218.2532m 
 -511.30678m  700.0000m  218.2532m 
 -511.20678m  700.0000m  218.2532m 
 -511.10678m  700.0000m  218.2532m 
 -511.00678m  700.0000m  218.2532m 
 -510.90678m  700.0000m  218.2532m 
 -510.80678m  700.0000m  218.2532m 
 -510.70678m  700.0000m  218.2532m 
 -510.60678m  700.0000m  218.2532m 
 -510.50678m  700.0000m  218.2532m 
 -510.40678m  700.0000m  218.2532m 
 -510.30678m  700.0000m  218.2532m 
 -510.20678m  700.0000m  218.2532m 
 -510.10678m  700.0000m  218.2532m 
 -510.00678m  700.0000m  218.2532m 
 -509.90678m  700.0000m  218.2532m 
 -509.80678m  700.0000m  218.2532m 
 -509.70678m  700.0000m  218.2532m 
 -509.60678m  700.0000m  218.2532m 
 -509.50678m  700.0000m  218.2532m 
 -509.40678m  700.0000m  218.2532m 
 -509.30678m  700.0000m  218.2532m 
 -509.20678m  700.0000m  218.2532m 
 -509.10678m  700.0000m  218.2532m 
 -509.00678m  700.0000m  218.2532m 
 -508.90678m  700.0000m  218.2532m 
 -508.80678m  700.0000m  218.2532m 
 -508.70678m  700.0000m  218.2532m 
 -508.60678m  700.0000m  218.2532m 
 -508.50678m  700.0000m  218.2532m 
 -508.40678m  700.0000m  218.2532m 
 -508.30678m  700.0000m  218.2532m 
 -508.20678m  700.0000m  218.2532m 
 -508.10678m  700.0000m  218.2532m 
 -508.00678m  700.0000m  218.2532m 
 -507.90678m  700.0000m  218.2532m 
 -507.80678m  700.0000m  218.2532m 
 -507.70678m  700.0000m  218.2532m 
 -507.60678m  700.0000m  218.2532m 
 -507.50678m  700.0000m  218.2532m 
 -507.40678m  700.0000m  218.2532m 
 -507.30678m  700.0000m  218.2532m 
 -507.20678m  700.0000m  218.2532m 
 -507.10678m  700.0000m  218.2532m 
 -507.00678m  700.0000m  218.2532m 
 -506.90678m  700.0000m  218.2532m 
 -506.80678m  700.0000m  218.2532m 
 -506.70678m  700.0000m  218.2532m 
 -506.60678m  700.0000m  218.2532m 
 -506.50678m  700.0000m  218.2532m 
 -506.40678m  700.0000m  218.2532m 
 -506.30678m  700.0000m  218.2532m 
 -506.20678m  700.0000m  218.2532m 
 -506.10678m  700.0000m  218.2532m 
 -506.00678m  700.0000m  218.2532m 
 -505.90678m  700.0000m  218.2532m 
 -505.80678m  700.0000m  218.2532m 
 -505.70678m  700.0000m  218.2532m 
 -505.60678m  700.0000m  218.2532m 
 -505.50678m  700.0000m  218.2532m 
 -505.40678m  700.0000m  218.2532m 
 -505.30678m  700.0000m  218.2532m 
 -505.20678m  700.0000m  218.2532m 
 -505.10678m  700.0000m  218.2532m 
 -505.00678m  700.0000m  218.2532m 
 -504.90678m  700.0000m  218.2532m 
 -504.80678m  700.0000m  218.2532m 
 -504.70678m  700.0000m  218.2532m 
 -504.60678m  700.0000m  218.2532m 
 -504.50678m  700.0000m  218.2532m 
 -504.40678m  700.0000m  218.2532m 
 -504.30678m  700.0000m  218.2532m 
 -504.20678m  700.0000m  218.2532m 
 -504.10678m  700.0000m  218.2532m 
 -504.00678m  700.0000m  218.2532m 
 -503.90678m  700.0000m  218.2532m 
 -503.80678m  700.0000m  218.2532m 
 -503.70678m  700.0000m  218.2532m 
 -503.60678m  700.0000m  218.2532m 
 -503.50678m  700.0000m  218.2532m 
 -503.40678m  700.0000m  218.2532m 
 -503.30678m  700.0000m  218.2532m 
 -503.20678m  700.0000m  218.2532m 
 -503.10678m  700.0000m  218.2532m 
 -503.00678m  700.0000m  218.2532m 
 -502.90678m  700.0000m  218.2532m 
 -502.80678m  700.0000m  218.2532m 
 -502.70678m  700.0000m  218.2532m 
 -502.60678m  700.0000m  218.2532m 
 -502.50678m  700.0000m  218.2532m 
 -502.40678m  700.0000m  218.2532m 
 -502.30678m  700.0000m  218.2532m 
 -502.20678m  700.0000m  218.2532m 
 -502.10678m  700.0000m  218.2532m 
 -502.00678m  700.0000m  218.2532m 
 -501.90678m  700.0000m  218.2532m 
 -501.80678m  700.0000m  218.2532m 
 -501.70678m  700.0000m  218.2532m 
 -501.60678m  700.0000m  218.2532m 
 -501.50678m  700.0000m  218.2532m 
 -501.40678m  700.0000m  218.2532m 
 -501.30678m  700.0000m  218.2532m 
 -501.20678m  700.0000m  218.2532m 
 -501.10678m  700.0000m  218.2532m 
 -501.00678m  700.0000m  218.2532m 
 -500.90678m  700.0000m  218.2532m 
 -500.80678m  700.0000m  218.2532m 
 -500.70678m  700.0000m  218.2532m 
 -500.60678m  700.0000m  218.2532m 
 -500.50678m  700.0000m  218.2532m 
 -500.40678m  700.0000m  218.2532m 
 -500.30678m  700.0000m  218.2532m 
 -500.20678m  700.0000m  218.2532m 
 -500.10678m  700.0000m  218.2532m 
 -500.00678m  700.0000m  218.2532m 
 -499.90678m  700.0000m  218.2532m 
 -499.80678m  700.0000m  218.2532m 
 -499.70678m  700.0000m  218.2532m 
 -499.60678m  700.0000m  218.2532m 
 -499.50678m  700.0000m  218.2532m 
 -499.40678m  700.0000m  218.2532m 
 -499.30678m  700.0000m  218.2532m 
 -499.20678m  700.0000m  218.2532m 
 -499.10678m  700.0000m  218.2532m 
 -499.00678m  700.0000m  218.2532m 
 -498.90678m  700.0000m  218.2532m 
 -498.80678m  700.0000m  218.2532m 
 -498.70678m  700.0000m  218.2532m 
 -498.60678m  700.0000m  218.2532m 
 -498.50678m  700.0000m  218.2532m 
 -498.40678m  700.0000m  218.2532m 
 -498.30678m  700.0000m  218.2532m 
 -498.20678m  700.0000m  218.2532m 
 -498.10678m  700.0000m  218.2532m 
 -498.00678m  700.0000m  218.2532m 
 -497.90678m  700.0000m  218.2532m 
 -497.80678m  700.0000m  218.2532m 
 -497.70678m  700.0000m  218.2532m 
 -497.60678m  700.0000m  218.2532m 
 -497.50678m  700.0000m  218.2532m 
 -497.40678m  700.0000m  218.2532m 
 -497.30678m  700.0000m  218.2532m 
 -497.20678m  700.0000m  218.2532m 
 -497.10678m  700.0000m  218.2532m 
 -497.00678m  700.0000m  218.2532m 
 -496.90678m  700.0000m  218.2532m 
 -496.80678m  700.0000m  218.2532m 
 -496.70678m  700.0000m  218.2532m 
 -496.60678m  700.0000m  218.2532m 
 -496.50678m  700.0000m  218.2532m 
 -496.40678m  700.0000m  218.2532m 
 -496.30678m  700.0000m  218.2532m 
 -496.20678m  700.0000m  218.2532m 
 -496.10678m  700.0000m  218.2532m 
 -496.00678m  700.0000m  218.2532m 
 -495.90678m  700.0000m  218.2532m 
 -495.80678m  700.0000m  218.2532m 
 -495.70678m  700.0000m  218.2532m 
 -495.60678m  700.0000m  218.2532m 
 -495.50678m  700.0000m  218.2532m 
 -495.40678m  700.0000m  218.2532m 
 -495.30678m  700.0000m  218.2532m 
 -495.20678m  700.0000m  218.2532m 
 -495.10678m  700.0000m  218.2532m 
 -495.00678m  700.0000m  218.2532m 
 -494.90678m  700.0000m  218.2532m 
 -494.80678m  700.0000m  218.2532m 
 -494.70678m  700.0000m  218.2532m 
 -494.60678m  700.0000m  218.2532m 
 -494.50678m  700.0000m  218.2532m 
 -494.40678m  700.0000m  218.2532m 
 -494.30678m  700.0000m  218.2532m 
 -494.20678m  700.0000m  218.2532m 
 -494.10678m  700.0000m  218.2532m 
 -494.00678m  700.0000m  218.2532m 
 -493.90678m  700.0000m  218.2532m 
 -493.80678m  700.0000m  218.2532m 
 -493.70678m  700.0000m  218.2532m 
 -493.60678m  700.0000m  218.2532m 
 -493.50678m  700.0000m  218.2532m 
 -493.40678m  700.0000m  218.2532m 
 -493.30678m  700.0000m  218.2532m 
 -493.20678m  700.0000m  218.2532m 
 -493.10678m  700.0000m  218.2532m 
 -493.00678m  700.0000m  218.2532m 
 -492.90678m  700.0000m  218.2532m 
 -492.80678m  700.0000m  218.2532m 
 -492.70678m  700.0000m  218.2532m 
 -492.60678m  700.0000m  218.2532m 
 -492.50678m  700.0000m  218.2532m 
 -492.40678m  700.0000m  218.2532m 
 -492.30678m  700.0000m  218.2532m 
 -492.20678m  700.0000m  218.2532m 
 -492.10678m  700.0000m  218.2532m 
 -492.00678m  700.0000m  218.2532m 
 -491.90678m  700.0000m  218.2532m 
 -491.80678m  700.0000m  218.2532m 
 -491.70678m  700.0000m  218.2532m 
 -491.60678m  700.0000m  218.2532m 
 -491.50678m  700.0000m  218.2532m 
 -491.40678m  700.0000m  218.2532m 
 -491.30678m  700.0000m  218.2532m 
 -491.20678m  700.0000m  218.2532m 
 -491.10678m  700.0000m  218.2532m 
 -491.00678m  700.0000m  218.2532m 
 -490.90678m  700.0000m  218.2532m 
 -490.80678m  700.0000m  218.2532m 
 -490.70678m  700.0000m  218.2532m 
 -490.60678m  700.0000m  218.2532m 
 -490.50678m  700.0000m  218.2532m 
 -490.40678m  700.0000m  218.2532m 
 -490.30678m  700.0000m  218.2532m 
 -490.20678m  700.0000m  218.2532m 
[...]
  665.09322m   88.4494n  218.2532m 
  665.19322m   88.4979n  218.2532m 
  665.29322m   88.5465n  218.2532m 
  665.39322m   88.5950n  218.2532m 
  665.49322m   88.6436n  218.2532m 
  665.59322m   88.6922n  218.2532m 
  665.69322m   88.7408n  218.2532m 
  665.79322m   88.7894n  218.2532m 
  665.89322m   88.8380n  218.2532m 
  665.99322m   88.8866n  218.2532m 
  666.09322m   88.9353n  218.2532m 
  666.19322m   88.9840n  218.2532m 
  666.29322m   89.0326n  218.2532m 
  666.39322m   89.0813n  218.2532m 
  666.49322m   89.1300n  218.2532m 
  666.59322m   89.1788n  218.2532m 
  666.69322m   89.2275n  218.2532m 
  666.79322m   89.2763n  218.2532m 
  666.89322m   89.3250n  218.2532m 
  666.99322m   89.3738n  218.2532m 
  667.09322m   89.4226n  218.2532m 
  667.19322m   89.4714n  218.2532m 
  667.29322m   89.5203n  218.2532m 
  667.39322m   89.5691n  218.2532m 
  667.49322m   89.6180n  218.2532m 
  667.59322m   89.6669n  218.2532m 
  667.69322m   89.7157n  218.2532m 
  667.79322m   89.7647n  218.2532m 
  667.89322m   89.8136n  218.2532m 
  667.99322m   89.8625n  218.2532m 
  668.09322m   89.9115n  218.2532m 
  668.19322m   89.9604n  218.2532m 
  668.29322m   90.0094n  218.2532m 
  668.39322m   90.0584n  218.2532m 
  668.49322m   90.1074n  218.2532m 
  668.59322m   90.1564n  218.2532m 
  668.69322m   90.2055n  218.2532m 
  668.79322m   90.2545n  218.2532m 
  668.89322m   90.3036n  218.2532m 
  668.99322m   90.3527n  218.2532m 
  669.09322m   90.4018n  218.2532m 
  669.19322m   90.4509n  218.2532m 
  669.29322m   90.5000n  218.2532m 
  669.39322m   90.5492n  218.2532m 
  669.49322m   90.5983n  218.2532m 
  669.59322m   90.6475n  218.2532m 
  669.69322m   90.6967n  218.2532m 
  669.79322m   90.7459n  218.2532m 
  669.89322m   90.7951n  218.2532m 
  669.99322m   90.8443n  218.2532m 
  670.09322m   90.8936n  218.2532m 
  670.19322m   90.9429n  218.2532m 
  670.29322m   90.9921n  218.2532m 
  670.39322m   91.0414n  218.2532m 
  670.49322m   91.0907n  218.2532m 
  670.59322m   91.1401n  218.2532m 
  670.69322m   91.1894n  218.2532m 
  670.79322m   91.2388n  218.2532m 
  670.89322m   91.2881n  218.2532m 
  670.99322m   91.3375n  218.2532m 
  671.09322m   91.3869n  218.2532m 
  671.19322m   91.4363n  218.2532m 
  671.29322m   91.4858n  218.2532m 
  671.39322m   91.5352n  218.2532m 
  671.49322m   91.5847n  218.2532m 
  671.59322m   91.6342n  218.2532m 
  671.69322m   91.6837n  218.2532m 
  671.79322m   91.7332n  218.2532m 
  671.89322m   91.7827n  218.2532m 
  671.99322m   91.8322n  218.2532m 
  672.09322m   91.8818n  218.2532m 
  672.19322m   91.9314n  218.2532m 
  672.29322m   91.9809n  218.2532m 
  672.39322m   92.0305n  218.2532m 
  672.49322m   92.0802n  218.2532m 
  672.59322m   92.1298n  218.2532m 
  672.69322m   92.1794n  218.2532m 
  672.79322m   92.2291n  218.2532m 
  672.89322m   92.2788n  218.2532m 
  672.99322m   92.3285n  218.2532m 
  673.09322m   92.3782n  218.2532m 
  673.19322m   92.4279n  218.2532m 
  673.29322m   92.4777n  218.2532m 
  673.39322m   92.5274n  218.2532m 
  673.49322m   92.5772n  218.2532m 
  673.59322m   92.6270n  218.2532m 
  673.69322m   92.6768n  218.2532m 
  673.79322m   92.7266n  218.2532m 
  673.89322m   92.7764n  218.2532m 
  673.99322m   92.8263n  218.2532m 
  674.09322m   92.8761n  218.2532m 
  674.19322m   92.9260n  218.2532m 
  674.29322m   92.9759n  218.2532m 
  674.39322m   93.0258n  218.2532m 
  674.49322m   93.0758n  218.2532m 
  674.59322m   93.1257n  218.2532m 
  674.69322m   93.1757n  218.2532m 
  674.79322m   93.2256n  218.2532m 
  674.89322m   93.2756n  218.2532m 
  674.99322m   93.3256n  218.2532m 
  675.09322m   93.3757n  218.2532m 
  675.19322m   93.4257n  218.2532m 
  675.29322m   93.4757n  218.2532m 
  675.39322m   93.5258n  218.2532m 
  675.49322m   93.5759n  218.2532m 
  675.59322m   93.6260n  218.2532m 
  675.69322m   93.6761n  218.2532m 
  675.79322m   93.7262n  218.2532m 
  675.89322m   93.7764n  218.2532m 
  675.99322m   93.8266n  218.2532m 
  676.09322m   93.8767n  218.2532m 
  676.19322m   93.9269n  218.2532m 
  676.29322m   93.9771n  218.2532m 
  676.39322m   94.0274n  218.2532m 
  676.49322m   94.0776n  218.2532m 
  676.59322m   94.1279n  218.2532m 
  676.69322m   94.1781n  218.2532m 
  676.79322m   94.2284n  218.2532m 
  676.89322m   94.2787n  218.2532m 
  676.99322m   94.3291n  218.2532m 
  677.09322m   94.3794n  218.2532m 
  677.19322m   94.4298n  218.2532m 
  677.29322m   94.4801n  218.2532m 
  677.39322m   94.5305n  218.2532m 
  677.49322m   94.5809n  218.2532m 
  677.59322m   94.6313n  218.2532m 
  677.69322m   94.6818n  218.2532m 
  677.79322m   94.7322n  218.2532m 
  677.89322m   94.7827n  218.2532m 
  677.99322m   94.8332n  218.2532m 
  678.09322m   94.8837n  218.2532m 
  678.19322m   94.9342n  218.2532m 
  678.29322m   94.9847n  218.2532m 
  678.39322m   95.0353n  218.2532m 
  678.49322m   95.0858n  218.2532m 
  678.59322m   95.1364n  218.2532m 
  678.69322m   95.1870n  218.2532m 
  678.79322m   95.2376n  218.2532m 
  678.89322m   95.2882n  218.2532m 
  678.99322m   95.3389n  218.2532m 
  679.09322m   95.3896n  218.2532m 
  679.19322m   95.4402n  218.2532m 
  679.29322m   95.4909n  218.2532m 
  679.39322m   95.5416n  218.2532m 
  679.49322m   95.5924n  218.2532m 
  679.59322m   95.6431n  218.2532m 
  679.69322m   95.6939n  218.2532m 
  679.79322m   95.7446n  218.2532m 
  679.89322m   95.7954n  218.2532m 
  679.99322m   95.8462n  218.2532m 
  680.09322m   95.8971n  218.2532m 
  680.19322m   95.9479n  218.2532m 
  680.29322m   95.9987n  218.2532m 
  680.39322m   96.0496n  218.2532m 
  680.49322m   96.1005n  218.2532m 
  680.59322m   96.1514n  218.2532m 
  680.69322m   96.2023n  218.2532m 
  680.79322m   96.2533n  218.2532m 
  680.89322m   96.3042n  218.2532m 
  680.99322m   96.3552n  218.2532m 
  681.09322m   96.4062n  218.2532m 
  681.19322m   96.4572n  218.2532m 
  681.29322m   96.5082n  218.2532m 
  681.39322m   96.5592n  218.2532m 
  681.49322m   96.6103n  218.2532m 
  681.59322m   96.6614n  218.2532m 
  681.69322m   96.7125n  218.2532m 
  681.79322m   96.7636n  218.2532m 
  681.89322m   96.8147n  218.2532m 
  681.99322m   96.8658n  218.2532m 
  682.09322m   96.9170n  218.2532m 
  682.19322m   96.9681n  218.2532m 
  682.29322m   97.0193n  218.2532m 
  682.39322m   97.0705n  218.2532m 
  682.49322m   97.1217n  218.2532m 
  682.59322m   97.1730n  218.2532m 
  682.69322m   97.2242n  218.2532m 
  682.79322m   97.2755n  218.2532m 
  682.89322m   97.3268n  218.2532m 
  682.99322m   97.3781n  218.2532m 
  683.09322m   97.4294n  218.2532m 
  683.19322m   97.4807n  218.2532m 
  683.29322m   97.5321n  218.2532m 
  683.39322m   97.5835n  218.2532m 
  683.49322m   97.6349n  218.2532m 
  683.59322m   97.6863n  218.2532m 
  683.69322m   97.7377n  218.2532m 
  683.79322m   97.7891n  218.2532m 
  683.89322m   97.8406n  218.2532m 
  683.99322m   97.8920n  218.2532m 
  684.09322m   97.9435n  218.2532m 
  684.19322m   97.9950n  218.2532m 
  684.29322m   98.0465n  218.2532m 
  684.39322m   98.0981n  218.2532m 
  684.49322m   98.1496n  218.2532m 
  684.59322m   98.2012n  218.2532m 
  684.69322m   98.2528n  218.2532m 
  684.79322m   98.3044n  218.2532m 
  684.89322m   98.3560n  218.2532m 
  684.99322m   98.4077n  218.2532m 
  685.09322m   98.4593n  218.2532m 
  685.19322m   98.5110n  218.2532m 
  685.29322m   98.5627n  218.2532m 
  685.39322m   98.6144n  218.2532m 
  685.49322m   98.6661n  218.2532m 
  685.59322m   98.7179n  218.2532m 
  685.69322m   98.7696n  218.2532m 
  685.79322m   98.8214n  218.2532m 
  685.89322m   98.8732n  218.2532m 
  685.99322m   98.9250n  218.2532m 
  686.09322m   98.9768n  218.2532m 
  686.19322m   99.0287n  218.2532m 
  686.29322m   99.0805n  218.2532m 
  686.39322m   99.1324n  218.2532m 
  686.49322m   99.1843n  218.2532m 
  686.59322m   99.2362n  218.2532m 
  686.69322m   99.2881n  218.2532m 
  686.79322m   99.3401n  218.2532m 
  686.89322m   99.3921n  218.2532m 
  686.99322m   99.4440n  218.2532m 
  687.09322m   99.4960n  218.2532m 
  687.19322m   99.5481n  218.2532m 
  687.29322m   99.6001n  218.2532m 
  687.39322m   99.6521n  218.2532m 
  687.49322m   99.7042n  218.2532m 
  687.59322m   99.7563n  218.2532m 
  687.69322m   99.8084n  218.2532m 
  687.79322m   99.8605n  218.2532m 
  687.89322m   99.9127n  218.2532m 
  687.99322m   99.9648n  218.2532m 
  688.09322m  100.0170n  218.2532m 
  688.19322m  100.0692n  218.2532m 
  688.29322m  100.1214n  218.2532m 
  688.39322m  100.1736n  218.2532m 
  688.49322m  100.2258n  218.2532m 
  688.59322m  100.2781n  218.2532m 
  688.69322m  100.3304n  218.2532m 
  688.79322m  100.3827n  218.2532m 
  688.89322m  100.4350n  218.2532m 
  688.99322m  100.4873n  218.2532m 
  689.09322m  100.5397n  218.2532m 
  689.19322m  100.5920n  218.2532m 
  689.29322m  100.6444n  218.2532m 
  689.39322m  100.6968n  218.2532m 
  689.49322m  100.7492n  218.2532m 
  689.59322m  100.8017n  218.2532m 
  689.69322m  100.8541n  218.2532m 
  689.79322m  100.9066n  218.2532m 
  689.89322m  100.9591n  218.2532m 
  689.99322m  101.0116n  218.2532m 
  690.09322m  101.0641n  218.2532m 
  690.19322m  101.1166n  218.2532m 
  690.29322m  101.1692n  218.2532m 
  690.39322m  101.2218n  218.2532m 
  690.49322m  101.2744n  218.2532m 
  690.59322m  101.3270n  218.2532m 
  690.69322m  101.3796n  218.2532m 
  690.79322m  101.4323n  218.2532m 
  690.89322m  101.4849n  218.2532m 
  690.99322m  101.5376n  218.2532m 
  691.09322m  101.5903n  218.2532m 
  691.19322m  101.6430n  218.2532m 
  691.29322m  101.6958n  218.2532m 
  691.39322m  101.7485n  218.2532m 
  691.49322m  101.8013n  218.2532m 
  691.59322m  101.8541n  218.2532m 
  691.69322m  101.9069n  218.2532m 
  691.79322m  101.9597n  218.2532m 
  691.89322m  102.0126n  218.2532m 
  691.99322m  102.0654n  218.2532m 
  692.09322m  102.1183n  218.2532m 
  692.19322m  102.1712n  218.2532m 
  692.29322m  102.2241n  218.2532m 
  692.39322m  102.2770n  218.2532m 
  692.49322m  102.3300n  218.2532m 
  692.59322m  102.3830n  218.2532m 
  692.69322m  102.4360n  218.2532m 
  692.79322m  102.4890n  218.2532m 
  692.89322m  102.5420n  218.2532m 
  692.99322m  102.5950n  218.2532m 
  693.09322m  102.6481n  218.2532m 
  693.19322m  102.7012n  218.2532m 
  693.29322m  102.7543n  218.2532m 
  693.39322m  102.8074n  218.2532m 
  693.49322m  102.8605n  218.2532m 
  693.59322m  102.9137n  218.2532m 
  693.69322m  102.9668n  218.2532m 
  693.79322m  103.0200n  218.2532m 
  693.89322m  103.0732n  218.2532m 
  693.99322m  103.1264n  218.2532m 
  694.09322m  103.1797n  218.2532m 
  694.19322m  103.2329n  218.2532m 
  694.29322m  103.2862n  218.2532m 
  694.39322m  103.3395n  218.2532m 
  694.49322m  103.3928n  218.2532m 
  694.59322m  103.4462n  218.2532m 
  694.69322m  103.4995n  218.2532m 
  694.79322m  103.5529n  218.2532m 
  694.89322m  103.6063n  218.2532m 
  694.99322m  103.6597n  218.2532m 
  695.09322m  103.7131n  218.2532m 
  695.19322m  103.7666n  218.2532m 
  695.29322m  103.8200n  218.2532m 
  695.39322m  103.8735n  218.2532m 
  695.49322m  103.9270n  218.2532m 
  695.59322m  103.9805n  218.2532m 
  695.69322m  104.0341n  218.2532m 
  695.79322m  104.0876n  218.2532m 
  695.89322m  104.1412n  218.2532m 
  695.99322m  104.1948n  218.2532m 
  696.09322m  104.2484n  218.2532m 
  696.19322m  104.3020n  218.2532m 
  696.29322m  104.3557n  218.2532m 
  696.39322m  104.4093n  218.2532m 
  696.49322m  104.4630n  218.2532m 
  696.59322m  104.5167n  218.2532m 
  696.69322m  104.5704n  218.2532m 
  696.79322m  104.6242n  218.2532m 
  696.89322m  104.6779n  218.2532m 
  696.99322m  104.7317n  218.2532m 
  697.09322m  104.7855n  218.2532m 
  697.19322m  104.8393n  218.2532m 
  697.29322m  104.8932n  218.2532m 
  697.39322m  104.9470n  218.2532m 
  697.49322m  105.0009n  218.2532m 
  697.59322m  105.0548n  218.2532m 
  697.69322m  105.1087n  218.2532m 
  697.79322m  105.1626n  218.2532m 
  697.89322m  105.2166n  218.2532m 
  697.99322m  105.2705n  218.2532m 
  698.09322m  105.3245n  218.2532m 
  698.19322m  105.3785n  218.2532m 
  698.29322m  105.4325n  218.2532m 
  698.39322m  105.4866n  218.2532m 
  698.49322m  105.5406n  218.2532m 
  698.59322m  105.5947n  218.2532m 
  698.69322m  105.6488n  218.2532m 
  698.79322m  105.7029n  218.2532m 
  698.89322m  105.7571n  218.2532m 
  698.99322m  105.8112n  218.2532m 
  699.09322m  105.8654n  218.2532m 
  699.19322m  105.9196n  218.2532m 
  699.29322m  105.9738n  218.2532m 
  699.39322m  106.0280n  218.2532m 
  699.49322m  106.0823n  218.2532m 
  699.59322m  106.1365n  218.2532m 
  699.69322m  106.1908n  218.2532m 
  699.79322m  106.2451n  218.2532m 
  699.89322m  106.2995n  218.2532m 
  699.99322m  106.3538n  218.2532m 
  700.09322m  106.4082n  218.2532m 
  700.19322m  106.4626n  218.2532m 
  700.29322m  106.5170n  218.2532m 
  700.39322m  106.5714n  218.2532m 
  700.49322m  106.6258n  218.2532m 
  700.59322m  106.6803n  218.2532m 
  700.69322m  106.7348n  218.2532m 
  700.79322m  106.7893n  218.2532m 
  700.89322m  106.8438n  218.2532m 
  700.99322m  106.8983n  218.2532m 
  701.09322m  106.9529n  218.2532m 
  701.19322m  107.0075n  218.2532m 
  701.29322m  107.0620n  218.2532m 
  701.39322m  107.1167n  218.2532m 
  701.49322m  107.1713n  218.2532m 
  701.59322m  107.2260n  218.2532m 
  701.69322m  107.2806n  218.2532m 
  701.79322m  107.3353n  218.2532m 
  701.89322m  107.3900n  218.2532m 
  701.99322m  107.4448n  218.2532m 
  702.09322m  107.4995n  218.2532m 
  702.19322m  107.5543n  218.2532m 
  702.29322m  107.6091n  218.2532m 
  702.39322m  107.6639n  218.2532m 
  702.49322m  107.7187n  218.2532m 
  702.59322m  107.7736n  218.2532m 
  702.69322m  107.8284n  218.2532m 
  702.79322m  107.8833n  218.2532m 
  702.89322m  107.9382n  218.2532m 
  702.99322m  107.9932n  218.2532m 
  703.09322m  108.0481n  218.2532m 
  703.19322m  108.1031n  218.2532m 
  703.29322m  108.1581n  218.2532m 
  703.39322m  108.2131n  218.2532m 
  703.49322m  108.2681n  218.2532m 
  703.59322m  108.3231n  218.2532m 
  703.69322m  108.3782n  218.2532m 
  703.79322m  108.4333n  218.2532m 
  703.89322m  108.4884n  218.2532m 
  703.99322m  108.5435n  218.2532m 
  704.09322m  108.5987n  218.2532m 
  704.19322m  108.6538n  218.2532m 
  704.29322m  108.7090n  218.2532m 
  704.39322m  108.7642n  218.2532m 
  704.49322m  108.8194n  218.2532m 
  704.59322m  108.8747n  218.2532m 
  704.69322m  108.9299n  218.2532m 
  704.79322m  108.9852n  218.2532m 
  704.89322m  109.0405n  218.2532m 
  704.99322m  109.0959n  218.2532m 
  705.09322m  109.1512n  218.2532m 
  705.19322m  109.2066n  218.2532m 
  705.29322m  109.2619n  218.2532m 
  705.39322m  109.3174n  218.2532m 
  705.49322m  109.3728n  218.2532m 
  705.59322m  109.4282n  218.2532m 
  705.69322m  109.4837n  218.2532m 
  705.79322m  109.5392n  218.2532m 
  705.89322m  109.5947n  218.2532m 
  705.99322m  109.6502n  218.2532m 
  706.09322m  109.7057n  218.2532m 
  706.19322m  109.7613n  218.2532m 
  706.29322m  109.8169n  218.2532m 
  706.39322m  109.8725n  218.2532m 
  706.49322m  109.9281n  218.2532m 
  706.59322m  109.9838n  218.2532m 
  706.69322m  110.0394n  218.2532m 
  706.79322m  110.0951n  218.2532m 
  706.89322m  110.1508n  218.2532m 
  706.99322m  110.2065n  218.2532m 
  707.09322m  110.2623n  218.2532m 
y
1****** HSPICE -- Q-2020.03-SP2-2 linux64 (Nov  1 2020) ******                  
 ******  
 .title ex1_1

 ****** operating point information tnom=  25.000 temp=  25.000 ******
 ****** operating point status is all       simulation time is     0.     
    node    =voltage      node    =voltage      node    =voltage

 +0:bl      = 700.0000m 0:blb     = 700.0000m 0:gl      = 218.2532m
 +0:gr      = 372.2798m 0:q       = 699.9547m 0:qb      = 218.2532m
 +0:u       =   0.      0:v1      = 308.6567m 0:vdd     = 700.0000m
 +0:wl      =   0.      0:x       = 681.6918m


 **** voltage sources

 subckt                                   
 element  0:vdd      0:vu       0:vwl     
  volts    700.0000m    0.         0.     
  current -507.0817n    0.       386.2626f
  power    354.9572n    0.         0.     

     total voltage source power dissipation=  354.9572n       watts



 **** voltage-controlled voltage sources


 subckt                        
 element  0:eli      0:ev1     
  volts    218.2532m  308.6567m
  current  266.1445f    0.     





 **** mosfets


 subckt                                                                    
 element  0:mp_pu1   0:mp_pu2   0:mn_pd1   0:mn_pd2   0:mn_ax1   0:mn_ax2  
 model    0:pmos_sra 0:pmos_sra 0:nmos_sra 0:nmos_sra 0:nmos_sra 0:nmos_sra
 region   Linear     Subth      Subth      Subth      Cutoff     Cutoff    
  id        -2.5238n -504.5577n    2.5207n  504.5577n    1.4668a  968.2157a
  ibs        0.         0.         0.         0.         0.         0.     
  ibd        0.         0.         0.         0.         0.         0.     
  vgs     -481.7468m -327.7202m  218.2532m  372.2798m -699.9547m -218.2532m
  vds      -45.2686u -481.7468m  699.9547m  218.2532m   45.2686u  481.7468m
  vbs        0.         0.         0.         0.       -18.2629m  463.4386m
  vth     -339.1310m -332.1429m  406.6383m  409.3139m  410.1164m  407.8704m
  vdsat   -190.7458m  -95.3700m   70.7162m   79.5435m   70.6690m   70.6690m
  vod     -142.6158m    4.4227m -188.3850m  -37.0341m   -1.1101  -626.1236m
  beta       1.6413m    1.6413m    2.1736m    2.1736m    2.1736m    2.1736m
  gam eff    0.         0.         0.         0.         0.         0.     
  gm        13.6400n   13.1316u   94.8361n   15.4437u  1.926e-24  1.488e-19
  gds       55.7442u  288.2933n    1.4654n  316.5563n   32.3790f  176.4080a
  gmb        9.9615f    4.8028p   27.4283f    5.1465p  1.650e-23  1.703e-20
  cdtot     22.6469a   10.1644a   10.2224a   10.2404a   10.2225a   10.2225a
  cgtot     57.7223a   31.1534a   20.4847a   26.5355a   20.4450a   20.4450a
  cstot     22.6496a   17.2388a   10.2501a   14.2729a   10.2225a   10.2225a
  cbtot      0.         0.         0.         0.         0.         0.     
  cgs       28.8636a   21.1060a   10.2626a   16.3019a   10.2225a   10.2225a
  cgd       28.8587a   10.0474a   10.2221a   10.2336a   10.2225a   10.2225a




          ***** job concluded
 ******  
 .title ex1_1

 ****** job statistics summary tnom=  25.000 temp=  25.000 ******
  
 ******  Machine Information  ******
 CPU:
 model name	: AMD EPYC 7713 64-Core Processor
 cpu MHz	: 2000.000
  
 OS:
 Linux version 3.10.0-1160.88.1.el7.x86_64 (mockbuild@kbuilder.bsys.centos.org) (gcc version 4.8.5 20150623 (Red Hat 4.8.5-44) (GCC) ) #1 SMP Tue Mar 7 15:41:52 UTC 2023


  ******  HSPICE Threads Information  ******

  Command Line Threads Count :     1
  Available CPU Count        :   256
  Actual Threads Count       :     1


  ******  Circuit Statistics  ******
  # nodes       =      12 # elements   =      11
  # resistors   =       0 # capacitors =       0 # inductors   =       0
  # mutual_inds =       0 # vccs       =       0 # vcvs        =       2
  # cccs        =       0 # ccvs       =       0 # volt_srcs   =       3
  # curr_srcs   =       0 # diodes     =       0 # bjts        =       0
  # jfets       =       0 # mosfets    =       6 # U elements  =       0
  # T elements  =       0 # W elements =       0 # B elements  =       0
  # S elements  =       0 # P elements =       0 # va device   =       0
  # vector_srcs =       0 # N elements =       0


  ******  Runtime Statistics (seconds)  ******

  analysis           time    # points   tot. iter  conv.iter
  op point           0.01           1          13
  dc sweep           1.00       14143       42433
  readin             0.01
  errchk             0.00
  setup              0.00
  output             0.00


           peak memory used        398.62 megabytes
           total cpu time            1.07 seconds
           total elapsed time        2.49 seconds
           job started at     21:32:55 03/18/2025
           job ended   at     21:32:57 03/18/2025
           job total runtime         2.49 seconds


 lic: Release hspice token(s) 
 lic: total license checkout elapse time:        1.41(s)
