 ****** HSPICE -- Q-2020.03-SP2-2 linux64 (Nov  1 2020) ******                  
  Copyright (c) 1986 - 2025 by Synopsys, Inc. All Rights Reserved.              
  This software and the associated documentation are proprietary
  to Synopsys, Inc. This software may only be used in accordance
  with the terms and conditions of a written license agreement with
  Synopsys, Inc. All other use, reproduction, or distribution of
  this software is strictly prohibited.
  Input File: ex1_1.sp                                                          
  Command line options: /RAID2/cad/synopsys/hspice/2020.03-sp2-2/hspice/linux64/hspice -i ex1_1.sp -o ex1_1.lis
  Start time: Tue Mar 18 23:56:43 2025
 lic:  
 lic: FLEXlm: SDK_12.6 
 lic: USER:   es25MCS042           HOSTNAME: ee28 
 lic: HOSTID: "d85ed3efc19a"       PID:      85564 
 lic: Using FLEXlm license file: 
 lic: 26585@lshc 
 lic: Checkout 1 hspice 
 lic: License/Maintenance for hspice will expire on 14-may-2025/2024.09 
 lic: 161(in_use)/1100(total) FLOATING license(s) on SERVER 26585@lshc 
 lic:   
  
      
 **info** set option symb=1 internally to help for convergence.
 *****************************************************************
 ******  option summary
 ******
 runlvl  = 3         bypass  = 2.0000    
 ******
 .title ex1_1

 ****** dc transfer curves tnom=  25.000 temp=  25.000 ******
x

 volt         voltage    voltage   
             q          qb         
    0.        699.9930m   50.5582f 
  100.00000u  699.9930m   50.5582f 
  200.00000u  699.9930m   50.5582f 
  300.00000u  699.9930m   50.5582f 
  400.00000u  699.9930m   50.5582f 
  500.00000u  699.9930m   50.5582f 
  600.00000u  699.9930m   50.5582f 
  700.00000u  699.9930m   50.5582f 
  800.00000u  699.9930m   50.5582f 
  900.00000u  699.9930m   50.5582f 
    1.00000m  699.9930m   50.5582f 
    1.10000m  699.9930m   50.5582f 
    1.20000m  699.9930m   50.5582f 
    1.30000m  699.9930m   50.5582f 
    1.40000m  699.9930m   50.5582f 
    1.50000m  699.9930m   50.5582f 
    1.60000m  699.9930m   50.5582f 
    1.70000m  699.9930m   50.5582f 
    1.80000m  699.9930m   50.5582f 
    1.90000m  699.9930m   50.5582f 
    2.00000m  699.9930m   50.5582f 
    2.10000m  699.9930m   50.5582f 
    2.20000m  699.9930m   50.5582f 
    2.30000m  699.9930m   50.5582f 
    2.40000m  699.9930m   50.5582f 
    2.50000m  699.9930m   50.5582f 
    2.60000m  699.9930m   50.5582f 
    2.70000m  699.9930m   50.5582f 
    2.80000m  699.9930m   50.5582f 
    2.90000m  699.9930m   50.5582f 
    3.00000m  699.9930m   50.5581f 
    3.10000m  699.9930m   50.5581f 
    3.20000m  699.9930m   50.5581f 
    3.30000m  699.9930m   50.5581f 
    3.40000m  699.9930m   50.5581f 
    3.50000m  699.9930m   50.5581f 
    3.60000m  699.9930m   50.5581f 
    3.70000m  699.9930m   50.5581f 
    3.80000m  699.9930m   50.5581f 
    3.90000m  699.9930m   50.5581f 
    4.00000m  699.9930m   50.5581f 
    4.10000m  699.9930m   50.5581f 
    4.20000m  699.9930m   50.5581f 
    4.30000m  699.9930m   50.5581f 
    4.40000m  699.9930m   50.5581f 
    4.50000m  699.9930m   50.5581f 
    4.60000m  699.9930m   50.5581f 
    4.70000m  699.9930m   50.5581f 
    4.80000m  699.9930m   50.5581f 
    4.90000m  699.9930m   50.5581f 
    5.00000m  699.9931m   50.5581f 
    5.10000m  699.9931m   50.5581f 
    5.20000m  699.9931m   50.5581f 
    5.30000m  699.9931m   50.5581f 
    5.40000m  699.9931m   50.5581f 
    5.50000m  699.9931m   50.5581f 
    5.60000m  699.9931m   50.5581f 
    5.70000m  699.9931m   50.5581f 
    5.80000m  699.9931m   50.5581f 
    5.90000m  699.9931m   50.5581f 
    6.00000m  699.9931m   50.5581f 
    6.10000m  699.9931m   50.5581f 
    6.20000m  699.9931m   50.5581f 
    6.30000m  699.9931m   50.5581f 
    6.40000m  699.9931m   50.5581f 
    6.50000m  699.9931m   50.5581f 
    6.60000m  699.9931m   50.5581f 
    6.70000m  699.9931m   50.5581f 
    6.80000m  699.9931m   50.5581f 
    6.90000m  699.9931m   50.5581f 
    7.00000m  699.9931m   50.5581f 
    7.10000m  699.9931m   50.5581f 
    7.20000m  699.9931m   50.5581f 
    7.30000m  699.9931m   50.5581f 
    7.40000m  699.9931m   50.5581f 
    7.50000m  699.9931m   50.5581f 
    7.60000m  699.9931m   50.5581f 
    7.70000m  699.9931m   50.5581f 
    7.80000m  699.9931m   50.5581f 
    7.90000m  699.9931m   50.5581f 
    8.00000m  699.9931m   50.5581f 
    8.10000m  699.9931m   50.5581f 
    8.20000m  699.9931m   50.5581f 
    8.30000m  699.9931m   50.5581f 
    8.40000m  699.9931m   50.5581f 
    8.50000m  699.9931m   50.5581f 
    8.60000m  699.9931m   50.5581f 
    8.70000m  699.9931m   50.5581f 
    8.80000m  699.9931m   50.5581f 
    8.90000m  699.9931m   50.5581f 
    9.00000m  699.9931m   50.5581f 
    9.10000m  699.9931m   50.5581f 
    9.20000m  699.9931m   50.5581f 
    9.30000m  699.9931m   50.5581f 
    9.40000m  699.9931m   50.5581f 
    9.50000m  699.9931m   50.5581f 
    9.60000m  699.9931m   50.5581f 
    9.70000m  699.9931m   50.5581f 
    9.80000m  699.9931m   50.5580f 
    9.90000m  699.9931m   50.5580f 
   10.00000m  699.9931m   50.5580f 
   10.10000m  699.9931m   50.5580f 
   10.20000m  699.9931m   50.5580f 
   10.30000m  699.9931m   50.5580f 
   10.40000m  699.9931m   50.5580f 
   10.50000m  699.9931m   50.5580f 
   10.60000m  699.9931m   50.5580f 
   10.70000m  699.9931m   50.5580f 
   10.80000m  699.9931m   50.5580f 
   10.90000m  699.9931m   50.5580f 
   11.00000m  699.9931m   50.5580f 
   11.10000m  699.9931m   50.5580f 
   11.20000m  699.9931m   50.5580f 
   11.30000m  699.9931m   50.5580f 
   11.40000m  699.9931m   50.5580f 
   11.50000m  699.9931m   50.5580f 
   11.60000m  699.9931m   50.5580f 
   11.70000m  699.9931m   50.5580f 
   11.80000m  699.9931m   50.5580f 
   11.90000m  699.9931m   50.5580f 
   12.00000m  699.9931m   50.5580f 
   12.10000m  699.9931m   50.5580f 
   12.20000m  699.9931m   50.5580f 
   12.30000m  699.9931m   50.5580f 
   12.40000m  699.9931m   50.5580f 
   12.50000m  699.9931m   50.5580f 
   12.60000m  699.9931m   50.5580f 
   12.70000m  699.9931m   50.5580f 
   12.80000m  699.9931m   50.5580f 
   12.90000m  699.9931m   50.5580f 
   13.00000m  699.9931m   50.5580f 
   13.10000m  699.9931m   50.5580f 
   13.20000m  699.9931m   50.5580f 
   13.30000m  699.9931m   50.5580f 
   13.40000m  699.9931m   50.5580f 
   13.50000m  699.9931m   50.5580f 
   13.60000m  699.9931m   50.5580f 
   13.70000m  699.9931m   50.5580f 
   13.80000m  699.9931m   50.5580f 
   13.90000m  699.9931m   50.5580f 
   14.00000m  699.9931m   50.5580f 
   14.10000m  699.9931m   50.5580f 
   14.20000m  699.9931m   50.5580f 
   14.30000m  699.9931m   50.5580f 
   14.40000m  699.9931m   50.5580f 
   14.50000m  699.9931m   50.5580f 
   14.60000m  699.9931m   50.5580f 
   14.70000m  699.9931m   50.5580f 
   14.80000m  699.9931m   50.5580f 
   14.90000m  699.9931m   50.5580f 
   15.00000m  699.9932m   50.5580f 
   15.10000m  699.9932m   50.5580f 
   15.20000m  699.9932m   50.5580f 
   15.30000m  699.9932m   50.5580f 
   15.40000m  699.9932m   50.5580f 
   15.50000m  699.9932m   50.5580f 
   15.60000m  699.9932m   50.5580f 
   15.70000m  699.9932m   50.5580f 
   15.80000m  699.9932m   50.5580f 
   15.90000m  699.9932m   50.5580f 
   16.00000m  699.9932m   50.5580f 
   16.10000m  699.9932m   50.5580f 
   16.20000m  699.9932m   50.5580f 
   16.30000m  699.9932m   50.5580f 
   16.40000m  699.9932m   50.5580f 
   16.50000m  699.9932m   50.5580f 
   16.60000m  699.9932m   50.5580f 
   16.70000m  699.9932m   50.5579f 
   16.80000m  699.9932m   50.5579f 
   16.90000m  699.9932m   50.5579f 
   17.00000m  699.9932m   50.5579f 
   17.10000m  699.9932m   50.5579f 
   17.20000m  699.9932m   50.5579f 
   17.30000m  699.9932m   50.5579f 
   17.40000m  699.9932m   50.5579f 
   17.50000m  699.9932m   50.5579f 
   17.60000m  699.9932m   50.5579f 
   17.70000m  699.9932m   50.5579f 
   17.80000m  699.9932m   50.5579f 
   17.90000m  699.9932m   50.5579f 
   18.00000m  699.9932m   50.5579f 
   18.10000m  699.9932m   50.5579f 
   18.20000m  699.9932m   50.5579f 
   18.30000m  699.9932m   50.5579f 
   18.40000m  699.9932m   50.5579f 
   18.50000m  699.9932m   50.5579f 
   18.60000m  699.9932m   50.5579f 
   18.70000m  699.9932m   50.5579f 
   18.80000m  699.9932m   50.5579f 
   18.90000m  699.9932m   50.5579f 
   19.00000m  699.9932m   50.5579f 
   19.10000m  699.9932m   50.5579f 
   19.20000m  699.9932m   50.5579f 
   19.30000m  699.9932m   50.5579f 
   19.40000m  699.9932m   50.5579f 
   19.50000m  699.9932m   50.5579f 
   19.60000m  699.9932m   50.5579f 
   19.70000m  699.9932m   50.5579f 
   19.80000m  699.9932m   50.5579f 
   19.90000m  699.9932m   50.5579f 
   20.00000m  699.9932m   50.5579f 
   20.10000m  699.9932m   50.5579f 
   20.20000m  699.9932m   50.5579f 
   20.30000m  699.9932m   50.5579f 
   20.40000m  699.9932m   50.5579f 
   20.50000m  699.9932m   50.5579f 
   20.60000m  699.9932m   50.5579f 
   20.70000m  699.9932m   50.5579f 
   20.80000m  699.9932m   50.5579f 
   20.90000m  699.9932m   50.5579f 
   21.00000m  699.9932m   50.5579f 
   21.10000m  699.9932m   50.5579f 
   21.20000m  699.9932m   50.5579f 
   21.30000m  699.9932m   50.5579f 
   21.40000m  699.9932m   50.5579f 
   21.50000m  699.9932m   50.5579f 
   21.60000m  699.9932m   50.5579f 
   21.70000m  699.9932m   50.5579f 
   21.80000m  699.9932m   50.5579f 
   21.90000m  699.9932m   50.5579f 
   22.00000m  699.9932m   50.5579f 
   22.10000m  699.9932m   50.5579f 
   22.20000m  699.9932m   50.5579f 
   22.30000m  699.9932m   50.5579f 
   22.40000m  699.9932m   50.5579f 
   22.50000m  699.9932m   50.5579f 
   22.60000m  699.9932m   50.5579f 
   22.70000m  699.9932m   50.5579f 
   22.80000m  699.9932m   50.5579f 
   22.90000m  699.9932m   50.5579f 
   23.00000m  699.9932m   50.5579f 
   23.10000m  699.9932m   50.5579f 
   23.20000m  699.9932m   50.5579f 
   23.30000m  699.9932m   50.5579f 
   23.40000m  699.9932m   50.5579f 
   23.50000m  699.9932m   50.5579f 
   23.60000m  699.9932m   50.5578f 
   23.70000m  699.9932m   50.5578f 
   23.80000m  699.9932m   50.5578f 
   23.90000m  699.9932m   50.5578f 
   24.00000m  699.9932m   50.5578f 
   24.10000m  699.9932m   50.5578f 
   24.20000m  699.9932m   50.5578f 
   24.30000m  699.9932m   50.5578f 
   24.40000m  699.9932m   50.5578f 
   24.50000m  699.9932m   50.5578f 
   24.60000m  699.9932m   50.5578f 
   24.70000m  699.9932m   50.5578f 
   24.80000m  699.9932m   50.5578f 
   24.90000m  699.9932m   50.5578f 
   25.00000m  699.9933m   50.5578f 
   25.10000m  699.9933m   50.5578f 
   25.20000m  699.9933m   50.5578f 
   25.30000m  699.9933m   50.5578f 
   25.40000m  699.9933m   50.5578f 
   25.50000m  699.9933m   50.5578f 
   25.60000m  699.9933m   50.5578f 
   25.70000m  699.9933m   50.5578f 
   25.80000m  699.9933m   50.5578f 
   25.90000m  699.9933m   50.5578f 
   26.00000m  699.9933m   50.5578f 
   26.10000m  699.9933m   50.5578f 
   26.20000m  699.9933m   50.5578f 
   26.30000m  699.9933m   50.5578f 
   26.40000m  699.9933m   50.5578f 
   26.50000m  699.9933m   50.5578f 
   26.60000m  699.9933m   50.5578f 
   26.70000m  699.9933m   50.5578f 
   26.80000m  699.9933m   50.5578f 
   26.90000m  699.9933m   50.5578f 
   27.00000m  699.9933m   50.5578f 
   27.10000m  699.9933m   50.5578f 
   27.20000m  699.9933m   50.5578f 
   27.30000m  699.9933m   50.5578f 
   27.40000m  699.9933m   50.5578f 
   27.50000m  699.9933m   50.5578f 
   27.60000m  699.9933m   50.5578f 
   27.70000m  699.9933m   50.5578f 
   27.80000m  699.9933m   50.5578f 
   27.90000m  699.9933m   50.5578f 
   28.00000m  699.9933m   50.5578f 
   28.10000m  699.9933m   50.5578f 
   28.20000m  699.9933m   50.5578f 
   28.30000m  699.9933m   50.5578f 
   28.40000m  699.9933m   50.5578f 
   28.50000m  699.9933m   50.5578f 
   28.60000m  699.9933m   50.5578f 
   28.70000m  699.9933m   50.5578f 
   28.80000m  699.9933m   50.5578f 
   28.90000m  699.9933m   50.5578f 
   29.00000m  699.9933m   50.5578f 
   29.10000m  699.9933m   50.5578f 
   29.20000m  699.9933m   50.5578f 
   29.30000m  699.9933m   50.5578f 
   29.40000m  699.9933m   50.5578f 
   29.50000m  699.9933m   50.5578f 
   29.60000m  699.9933m   50.5578f 
   29.70000m  699.9933m   50.5578f 
   29.80000m  699.9933m   50.5578f 
   29.90000m  699.9933m   50.5578f 
   30.00000m  699.9933m   50.5578f 
   30.10000m  699.9933m   50.5578f 
   30.20000m  699.9933m   50.5578f 
   30.30000m  699.9933m   50.5578f 
   30.40000m  699.9933m   50.5578f 
   30.50000m  699.9933m   50.5577f 
   30.60000m  699.9933m   50.5577f 
   30.70000m  699.9933m   50.5577f 
   30.80000m  699.9933m   50.5577f 
   30.90000m  699.9933m   50.5577f 
   31.00000m  699.9933m   50.5577f 
   31.10000m  699.9933m   50.5577f 
   31.20000m  699.9933m   50.5577f 
   31.30000m  699.9933m   50.5577f 
   31.40000m  699.9933m   50.5577f 
   31.50000m  699.9933m   50.5577f 
   31.60000m  699.9933m   50.5577f 
   31.70000m  699.9933m   50.5577f 
   31.80000m  699.9933m   50.5577f 
   31.90000m  699.9933m   50.5577f 
   32.00000m  699.9933m   50.5577f 
   32.10000m  699.9933m   50.5577f 
   32.20000m  699.9933m   50.5577f 
   32.30000m  699.9933m   50.5577f 
   32.40000m  699.9933m   50.5577f 
   32.50000m  699.9933m   50.5577f 
   32.60000m  699.9933m   50.5577f 
   32.70000m  699.9933m   50.5577f 
   32.80000m  699.9933m   50.5577f 
   32.90000m  699.9933m   50.5577f 
   33.00000m  699.9933m   50.5577f 
   33.10000m  699.9933m   50.5577f 
   33.20000m  699.9933m   50.5577f 
   33.30000m  699.9933m   50.5577f 
   33.40000m  699.9933m   50.5577f 
   33.50000m  699.9933m   50.5577f 
   33.60000m  699.9933m   50.5577f 
   33.70000m  699.9933m   50.5577f 
   33.80000m  699.9933m   50.5577f 
   33.90000m  699.9933m   50.5577f 
   34.00000m  699.9933m   50.5577f 
   34.10000m  699.9933m   50.5577f 
   34.20000m  699.9933m   50.5577f 
   34.30000m  699.9933m   50.5577f 
   34.40000m  699.9933m   50.5577f 
   34.50000m  699.9933m   50.5577f 
   34.60000m  699.9933m   50.5577f 
   34.70000m  699.9933m   50.5577f 
   34.80000m  699.9933m   50.5577f 
   34.90000m  699.9933m   50.5577f 
   35.00000m  699.9934m   50.5577f 
   35.10000m  699.9934m   50.5577f 
   35.20000m  699.9934m   50.5577f 
   35.30000m  699.9934m   50.5577f 
   35.40000m  699.9934m   50.5577f 
   35.50000m  699.9934m   50.5577f 
   35.60000m  699.9934m   50.5577f 
   35.70000m  699.9934m   50.5577f 
   35.80000m  699.9934m   50.5577f 
   35.90000m  699.9934m   50.5577f 
   36.00000m  699.9934m   50.5577f 
   36.10000m  699.9934m   50.5577f 
   36.20000m  699.9934m   50.5577f 
   36.30000m  699.9934m   50.5577f 
   36.40000m  699.9934m   50.5577f 
   36.50000m  699.9934m   50.5577f 
   36.60000m  699.9934m   50.5577f 
   36.70000m  699.9934m   50.5577f 
   36.80000m  699.9934m   50.5577f 
   36.90000m  699.9934m   50.5577f 
   37.00000m  699.9934m   50.5577f 
   37.10000m  699.9934m   50.5577f 
   37.20000m  699.9934m   50.5577f 
   37.30000m  699.9934m   50.5576f 
   37.40000m  699.9934m   50.5576f 
   37.50000m  699.9934m   50.5576f 
   37.60000m  699.9934m   50.5576f 
   37.70000m  699.9934m   50.5576f 
   37.80000m  699.9934m   50.5576f 
   37.90000m  699.9934m   50.5576f 
   38.00000m  699.9934m   50.5576f 
   38.10000m  699.9934m   50.5576f 
   38.20000m  699.9934m   50.5576f 
   38.30000m  699.9934m   50.5576f 
   38.40000m  699.9934m   50.5576f 
   38.50000m  699.9934m   50.5576f 
   38.60000m  699.9934m   50.5576f 
   38.70000m  699.9934m   50.5576f 
   38.80000m  699.9934m   50.5576f 
   38.90000m  699.9934m   50.5576f 
   39.00000m  699.9934m   50.5576f 
   39.10000m  699.9934m   50.5576f 
   39.20000m  699.9934m   50.5576f 
   39.30000m  699.9934m   50.5576f 
   39.40000m  699.9934m   50.5576f 
   39.50000m  699.9934m   50.5576f 
   39.60000m  699.9934m   50.5576f 
   39.70000m  699.9934m   50.5576f 
   39.80000m  699.9934m   50.5576f 
   39.90000m  699.9934m   50.5576f 
   40.00000m  699.9934m   50.5576f 
   40.10000m  699.9934m   50.5576f 
   40.20000m  699.9934m   50.5576f 
   40.30000m  699.9934m   50.5576f 
   40.40000m  699.9934m   50.5576f 
   40.50000m  699.9934m   50.5576f 
   40.60000m  699.9934m   50.5576f 
   40.70000m  699.9934m   50.5576f 
   40.80000m  699.9934m   50.5576f 
   40.90000m  699.9934m   50.5576f 
   41.00000m  699.9934m   50.5576f 
   41.10000m  699.9934m   50.5576f 
   41.20000m  699.9934m   50.5576f 
   41.30000m  699.9934m   50.5576f 
   41.40000m  699.9934m   50.5576f 
   41.50000m  699.9934m   50.5576f 
   41.60000m  699.9934m   50.5576f 
   41.70000m  699.9934m   50.5576f 
   41.80000m  699.9934m   50.5576f 
   41.90000m  699.9934m   50.5576f 
   42.00000m  699.9934m   50.5576f 
   42.10000m  699.9934m   50.5576f 
   42.20000m  699.9934m   50.5576f 
   42.30000m  699.9934m   50.5576f 
   42.40000m  699.9934m   50.5576f 
   42.50000m  699.9934m   50.5576f 
   42.60000m  699.9934m   50.5576f 
   42.70000m  699.9934m   50.5576f 
   42.80000m  699.9934m   50.5576f 
   42.90000m  699.9934m   50.5576f 
   43.00000m  699.9934m   50.5576f 
   43.10000m  699.9934m   50.5576f 
   43.20000m  699.9934m   50.5576f 
   43.30000m  699.9934m   50.5576f 
   43.40000m  699.9934m   50.5576f 
   43.50000m  699.9934m   50.5576f 
   43.60000m  699.9934m   50.5576f 
   43.70000m  699.9934m   50.5576f 
   43.80000m  699.9934m   50.5576f 
   43.90000m  699.9934m   50.5576f 
   44.00000m  699.9934m   50.5576f 
   44.10000m  699.9934m   50.5576f 
   44.20000m  699.9934m   50.5575f 
   44.30000m  699.9934m   50.5575f 
   44.40000m  699.9934m   50.5575f 
   44.50000m  699.9934m   50.5575f 
   44.60000m  699.9934m   50.5575f 
   44.70000m  699.9934m   50.5575f 
   44.80000m  699.9934m   50.5575f 
   44.90000m  699.9934m   50.5575f 
   45.00000m  699.9935m   50.5575f 
   45.10000m  699.9935m   50.5575f 
   45.20000m  699.9935m   50.5575f 
   45.30000m  699.9935m   50.5575f 
   45.40000m  699.9935m   50.5575f 
   45.50000m  699.9935m   50.5575f 
   45.60000m  699.9935m   50.5575f 
   45.70000m  699.9935m   50.5575f 
   45.80000m  699.9935m   50.5575f 
   45.90000m  699.9935m   50.5575f 
   46.00000m  699.9935m   50.5575f 
   46.10000m  699.9935m   50.5575f 
   46.20000m  699.9935m   50.5575f 
   46.30000m  699.9935m   50.5575f 
   46.40000m  699.9935m   50.5575f 
   46.50000m  699.9935m   50.5575f 
   46.60000m  699.9935m   50.5575f 
   46.70000m  699.9935m   50.5575f 
   46.80000m  699.9935m   50.5575f 
   46.90000m  699.9935m   50.5575f 
   47.00000m  699.9935m   50.5575f 
   47.10000m  699.9935m   50.5575f 
   47.20000m  699.9935m   50.5575f 
   47.30000m  699.9935m   50.5575f 
   47.40000m  699.9935m   50.5575f 
   47.50000m  699.9935m   50.5575f 
   47.60000m  699.9935m   50.5575f 
   47.70000m  699.9935m   50.5575f 
   47.80000m  699.9935m   50.5575f 
   47.90000m  699.9935m   50.5575f 
   48.00000m  699.9935m   50.5575f 
   48.10000m  699.9935m   50.5575f 
   48.20000m  699.9935m   50.5575f 
   48.30000m  699.9935m   50.5575f 
   48.40000m  699.9935m   50.5575f 
   48.50000m  699.9935m   50.5575f 
   48.60000m  699.9935m   50.5575f 
   48.70000m  699.9935m   50.5575f 
   48.80000m  699.9935m   50.5575f 
   48.90000m  699.9935m   50.5575f 
   49.00000m  699.9935m   50.5575f 
   49.10000m  699.9935m   50.5575f 
   49.20000m  699.9935m   50.5575f 
   49.30000m  699.9935m   50.5575f 
   49.40000m  699.9935m   50.5575f 
   49.50000m  699.9935m   50.5575f 
   49.60000m  699.9935m   50.5575f 
   49.70000m  699.9935m   50.5575f 
   49.80000m  699.9935m   50.5575f 
   49.90000m  699.9935m   50.5575f 
   50.00000m  699.9935m   50.5575f 
   50.10000m  699.9935m   50.5575f 
   50.20000m  699.9935m   50.5575f 
   50.30000m  699.9935m   50.5575f 
   50.40000m  699.9935m   50.5575f 
   50.50000m  699.9935m   50.5575f 
   50.60000m  699.9935m   50.5575f 
   50.70000m  699.9935m   50.5575f 
   50.80000m  699.9935m   50.5575f 
   50.90000m  699.9935m   50.5575f 
   51.00000m  699.9935m   50.5575f 
   51.10000m  699.9935m   50.5574f 
   51.20000m  699.9935m   50.5574f 
   51.30000m  699.9935m   50.5574f 
   51.40000m  699.9935m   50.5574f 
   51.50000m  699.9935m   50.5574f 
   51.60000m  699.9935m   50.5574f 
   51.70000m  699.9935m   50.5574f 
   51.80000m  699.9935m   50.5574f 
   51.90000m  699.9935m   50.5574f 
   52.00000m  699.9935m   50.5574f 
   52.10000m  699.9935m   50.5574f 
   52.20000m  699.9935m   50.5574f 
   52.30000m  699.9935m   50.5574f 
   52.40000m  699.9935m   50.5574f 
   52.50000m  699.9935m   50.5574f 
   52.60000m  699.9935m   50.5574f 
   52.70000m  699.9935m   50.5574f 
   52.80000m  699.9935m   50.5574f 
   52.90000m  699.9935m   50.5574f 
   53.00000m  699.9935m   50.5574f 
   53.10000m  699.9935m   50.5574f 
   53.20000m  699.9935m   50.5574f 
   53.30000m  699.9935m   50.5574f 
   53.40000m  699.9935m   50.5574f 
   53.50000m  699.9935m   50.5574f 
   53.60000m  699.9935m   50.5574f 
   53.70000m  699.9935m   50.5574f 
   53.80000m  699.9935m   50.5574f 
   53.90000m  699.9935m   50.5574f 
   54.00000m  699.9935m   50.5574f 
   54.10000m  699.9935m   50.5574f 
   54.20000m  699.9935m   50.5574f 
   54.30000m  699.9935m   50.5574f 
   54.40000m  699.9935m   50.5574f 
   54.50000m  699.9935m   50.5574f 
   54.60000m  699.9935m   50.5574f 
   54.70000m  699.9935m   50.5574f 
   54.80000m  699.9935m   50.5574f 
   54.90000m  699.9935m   50.5574f 
   55.00000m  699.9936m   50.5574f 
   55.10000m  699.9936m   50.5574f 
   55.20000m  699.9936m   50.5574f 
   55.30000m  699.9936m   50.5574f 
   55.40000m  699.9936m   50.5574f 
   55.50000m  699.9936m   50.5574f 
   55.60000m  699.9936m   50.5574f 
   55.70000m  699.9936m   50.5574f 
   55.80000m  699.9936m   50.5574f 
   55.90000m  699.9936m   50.5574f 
   56.00000m  699.9936m   50.5574f 
   56.10000m  699.9936m   50.5574f 
   56.20000m  699.9936m   50.5574f 
   56.30000m  699.9936m   50.5574f 
   56.40000m  699.9936m   50.5574f 
   56.50000m  699.9936m   50.5574f 
   56.60000m  699.9936m   50.5574f 
   56.70000m  699.9936m   50.5574f 
   56.80000m  699.9936m   50.5574f 
   56.90000m  699.9936m   50.5574f 
   57.00000m  699.9936m   50.5574f 
   57.10000m  699.9936m   50.5574f 
   57.20000m  699.9936m   50.5574f 
   57.30000m  699.9936m   50.5574f 
   57.40000m  699.9936m   50.5574f 
   57.50000m  699.9936m   50.5574f 
   57.60000m  699.9936m   50.5574f 
   57.70000m  699.9936m   50.5574f 
   57.80000m  699.9936m   50.5574f 
   57.90000m  699.9936m   50.5574f 
   58.00000m  699.9936m   50.5573f 
   58.10000m  699.9936m   50.5573f 
   58.20000m  699.9936m   50.5573f 
   58.30000m  699.9936m   50.5573f 
   58.40000m  699.9936m   50.5573f 
   58.50000m  699.9936m   50.5573f 
   58.60000m  699.9936m   50.5573f 
   58.70000m  699.9936m   50.5573f 
   58.80000m  699.9936m   50.5573f 
   58.90000m  699.9936m   50.5573f 
   59.00000m  699.9936m   50.5573f 
   59.10000m  699.9936m   50.5573f 
   59.20000m  699.9936m   50.5573f 
   59.30000m  699.9936m   50.5573f 
   59.40000m  699.9936m   50.5573f 
   59.50000m  699.9936m   50.5573f 
   59.60000m  699.9936m   50.5573f 
   59.70000m  699.9936m   50.5573f 
   59.80000m  699.9936m   50.5573f 
   59.90000m  699.9936m   50.5573f 
   60.00000m  699.9936m   50.5573f 
   60.10000m  699.9936m   50.5573f 
   60.20000m  699.9936m   50.5573f 
   60.30000m  699.9936m   50.5573f 
   60.40000m  699.9936m   50.5573f 
   60.50000m  699.9936m   50.5573f 
   60.60000m  699.9936m   50.5573f 
   60.70000m  699.9936m   50.5573f 
   60.80000m  699.9936m   50.5573f 
   60.90000m  699.9936m   50.5573f 
   61.00000m  699.9936m   50.5573f 
   61.10000m  699.9936m   50.5573f 
   61.20000m  699.9936m   50.5573f 
   61.30000m  699.9936m   50.5573f 
   61.40000m  699.9936m   50.5573f 
   61.50000m  699.9936m   50.5573f 
   61.60000m  699.9936m   50.5573f 
   61.70000m  699.9936m   50.5573f 
   61.80000m  699.9936m   50.5573f 
   61.90000m  699.9936m   50.5573f 
   62.00000m  699.9936m   50.5573f 
   62.10000m  699.9936m   50.5573f 
   62.20000m  699.9936m   50.5573f 
   62.30000m  699.9936m   50.5573f 
   62.40000m  699.9936m   50.5573f 
   62.50000m  699.9936m   50.5573f 
   62.60000m  699.9936m   50.5573f 
   62.70000m  699.9936m   50.5573f 
   62.80000m  699.9936m   50.5573f 
   62.90000m  699.9936m   50.5573f 
   63.00000m  699.9936m   50.5573f 
   63.10000m  699.9936m   50.5573f 
   63.20000m  699.9936m   50.5573f 
   63.30000m  699.9936m   50.5573f 
   63.40000m  699.9936m   50.5573f 
   63.50000m  699.9936m   50.5573f 
   63.60000m  699.9936m   50.5573f 
   63.70000m  699.9936m   50.5573f 
   63.80000m  699.9936m   50.5573f 
   63.90000m  699.9936m   50.5573f 
   64.00000m  699.9936m   50.5573f 
   64.10000m  699.9936m   50.5573f 
   64.20000m  699.9936m   50.5573f 
   64.30000m  699.9936m   50.5573f 
   64.40000m  699.9936m   50.5573f 
   64.50000m  699.9936m   50.5573f 
   64.60000m  699.9936m   50.5573f 
   64.70000m  699.9936m   50.5573f 
   64.80000m  699.9936m   50.5573f 
   64.90000m  699.9936m   50.5572f 
   65.00000m  699.9937m   50.5572f 
   65.10000m  699.9937m   50.5572f 
   65.20000m  699.9937m   50.5572f 
   65.30000m  699.9937m   50.5572f 
   65.40000m  699.9937m   50.5572f 
   65.50000m  699.9937m   50.5572f 
   65.60000m  699.9937m   50.5572f 
   65.70000m  699.9937m   50.5572f 
   65.80000m  699.9937m   50.5572f 
   65.90000m  699.9937m   50.5572f 
   66.00000m  699.9937m   50.5572f 
   66.10000m  699.9937m   50.5572f 
   66.20000m  699.9937m   50.5572f 
   66.30000m  699.9937m   50.5572f 
   66.40000m  699.9937m   50.5572f 
   66.50000m  699.9937m   50.5572f 
   66.60000m  699.9937m   50.5572f 
   66.70000m  699.9937m   50.5572f 
   66.80000m  699.9937m   50.5572f 
   66.90000m  699.9937m   50.5572f 
   67.00000m  699.9937m   50.5572f 
   67.10000m  699.9937m   50.5572f 
   67.20000m  699.9937m   50.5572f 
   67.30000m  699.9937m   50.5572f 
   67.40000m  699.9937m   50.5572f 
   67.50000m  699.9937m   50.5572f 
   67.60000m  699.9937m   50.5572f 
   67.70000m  699.9937m   50.5572f 
   67.80000m  699.9937m   50.5572f 
   67.90000m  699.9937m   50.5572f 
   68.00000m  699.9937m   50.5572f 
   68.10000m  699.9937m   50.5572f 
   68.20000m  699.9937m   50.5572f 
   68.30000m  699.9937m   50.5572f 
   68.40000m  699.9937m   50.5572f 
   68.50000m  699.9937m   50.5572f 
   68.60000m  699.9937m   50.5572f 
   68.70000m  699.9937m   50.5572f 
   68.80000m  699.9937m   50.5572f 
   68.90000m  699.9937m   50.5572f 
   69.00000m  699.9937m   50.5572f 
   69.10000m  699.9937m   50.5572f 
   69.20000m  699.9937m   50.5572f 
   69.30000m  699.9937m   50.5572f 
   69.40000m  699.9937m   50.5572f 
   69.50000m  699.9937m   50.5572f 
   69.60000m  699.9937m   50.5572f 
   69.70000m  699.9937m   50.5572f 
   69.80000m  699.9937m   50.5572f 
   69.90000m  699.9937m   50.5572f 
   70.00000m  699.9937m   50.5572f 
   70.10000m  699.9937m   50.5572f 
   70.20000m  699.9937m   50.5572f 
   70.30000m  699.9937m   50.5572f 
   70.40000m  699.9937m   50.5572f 
   70.50000m  699.9937m   50.5572f 
   70.60000m  699.9937m   50.5572f 
   70.70000m  699.9937m   50.5572f 
   70.80000m  699.9937m   50.5572f 
   70.90000m  699.9937m   50.5572f 
   71.00000m  699.9937m   50.5572f 
   71.10000m  699.9937m   50.5572f 
   71.20000m  699.9937m   50.5572f 
   71.30000m  699.9937m   50.5572f 
   71.40000m  699.9937m   50.5572f 
   71.50000m  699.9937m   50.5572f 
   71.60000m  699.9937m   50.5572f 
   71.70000m  699.9937m   50.5571f 
   71.80000m  699.9937m   50.5571f 
   71.90000m  699.9937m   50.5571f 
   72.00000m  699.9937m   50.5571f 
   72.10000m  699.9937m   50.5571f 
   72.20000m  699.9937m   50.5571f 
   72.30000m  699.9937m   50.5571f 
   72.40000m  699.9937m   50.5571f 
   72.50000m  699.9937m   50.5571f 
   72.60000m  699.9937m   50.5571f 
   72.70000m  699.9937m   50.5571f 
   72.80000m  699.9937m   50.5571f 
   72.90000m  699.9937m   50.5571f 
   73.00000m  699.9937m   50.5571f 
   73.10000m  699.9937m   50.5571f 
   73.20000m  699.9937m   50.5571f 
   73.30000m  699.9937m   50.5571f 
   73.40000m  699.9937m   50.5571f 
   73.50000m  699.9937m   50.5571f 
   73.60000m  699.9937m   50.5571f 
   73.70000m  699.9937m   50.5571f 
   73.80000m  699.9937m   50.5571f 
   73.90000m  699.9937m   50.5571f 
   74.00000m  699.9937m   50.5571f 
   74.10000m  699.9937m   50.5571f 
   74.20000m  699.9937m   50.5571f 
   74.30000m  699.9937m   50.5571f 
   74.40000m  699.9937m   50.5571f 
   74.50000m  699.9937m   50.5571f 
   74.60000m  699.9937m   50.5571f 
   74.70000m  699.9937m   50.5571f 
   74.80000m  699.9937m   50.5571f 
   74.90000m  699.9937m   50.5571f 
   75.00000m  699.9938m   50.5571f 
   75.10000m  699.9938m   50.5571f 
   75.20000m  699.9938m   50.5571f 
   75.30000m  699.9938m   50.5571f 
   75.40000m  699.9938m   50.5571f 
   75.50000m  699.9938m   50.5571f 
   75.60000m  699.9938m   50.5571f 
   75.70000m  699.9938m   50.5571f 
   75.80000m  699.9938m   50.5571f 
   75.90000m  699.9938m   50.5571f 
   76.00000m  699.9938m   50.5571f 
   76.10000m  699.9938m   50.5571f 
   76.20000m  699.9938m   50.5571f 
   76.30000m  699.9938m   50.5571f 
   76.40000m  699.9938m   50.5571f 
   76.50000m  699.9938m   50.5571f 
   76.60000m  699.9938m   50.5571f 
   76.70000m  699.9938m   50.5571f 
   76.80000m  699.9938m   50.5571f 
   76.90000m  699.9938m   50.5571f 
   77.00000m  699.9938m   50.5571f 
   77.10000m  699.9938m   50.5571f 
   77.20000m  699.9938m   50.5571f 
   77.30000m  699.9938m   50.5571f 
   77.40000m  699.9938m   50.5571f 
   77.50000m  699.9938m   50.5571f 
   77.60000m  699.9938m   50.5571f 
   77.70000m  699.9938m   50.5571f 
   77.80000m  699.9938m   50.5571f 
   77.90000m  699.9938m   50.5571f 
   78.00000m  699.9938m   50.5571f 
   78.10000m  699.9938m   50.5571f 
   78.20000m  699.9938m   50.5571f 
   78.30000m  699.9938m   50.5571f 
   78.40000m  699.9938m   50.5571f 
   78.50000m  699.9938m   50.5571f 
   78.60000m  699.9938m   50.5570f 
   78.70000m  699.9938m   50.5570f 
   78.80000m  699.9938m   50.5570f 
   78.90000m  699.9938m   50.5570f 
   79.00000m  699.9938m   50.5570f 
   79.10000m  699.9938m   50.5570f 
   79.20000m  699.9938m   50.5570f 
   79.30000m  699.9938m   50.5570f 
   79.40000m  699.9938m   50.5570f 
   79.50000m  699.9938m   50.5570f 
   79.60000m  699.9938m   50.5570f 
   79.70000m  699.9938m   50.5570f 
   79.80000m  699.9938m   50.5570f 
   79.90000m  699.9938m   50.5570f 
   80.00000m  699.9938m   50.5570f 
   80.10000m  699.9938m   50.5570f 
   80.20000m  699.9938m   50.5570f 
   80.30000m  699.9938m   50.5570f 
   80.40000m  699.9938m   50.5570f 
   80.50000m  699.9938m   50.5570f 
   80.60000m  699.9938m   50.5570f 
   80.70000m  699.9938m   50.5570f 
   80.80000m  699.9938m   50.5570f 
   80.90000m  699.9938m   50.5570f 
   81.00000m  699.9938m   50.5570f 
   81.10000m  699.9938m   50.5570f 
   81.20000m  699.9938m   50.5570f 
   81.30000m  699.9938m   50.5570f 
   81.40000m  699.9938m   50.5570f 
   81.50000m  699.9938m   50.5570f 
   81.60000m  699.9938m   50.5570f 
   81.70000m  699.9938m   50.5570f 
   81.80000m  699.9938m   50.5570f 
   81.90000m  699.9938m   50.5570f 
   82.00000m  699.9938m   50.5570f 
   82.10000m  699.9938m   50.5570f 
   82.20000m  699.9938m   50.5570f 
   82.30000m  699.9938m   50.5570f 
   82.40000m  699.9938m   50.5570f 
   82.50000m  699.9938m   50.5570f 
   82.60000m  699.9938m   50.5570f 
   82.70000m  699.9938m   50.5570f 
   82.80000m  699.9938m   50.5570f 
   82.90000m  699.9938m   50.5570f 
   83.00000m  699.9938m   50.5570f 
   83.10000m  699.9938m   50.5570f 
   83.20000m  699.9938m   50.5570f 
   83.30000m  699.9938m   50.5570f 
   83.40000m  699.9938m   50.5570f 
   83.50000m  699.9938m   50.5570f 
   83.60000m  699.9938m   50.5570f 
   83.70000m  699.9938m   50.5570f 
   83.80000m  699.9938m   50.5570f 
   83.90000m  699.9938m   50.5570f 
   84.00000m  699.9938m   50.5570f 
   84.10000m  699.9938m   50.5570f 
   84.20000m  699.9938m   50.5570f 
   84.30000m  699.9938m   50.5570f 
   84.40000m  699.9938m   50.5570f 
   84.50000m  699.9938m   50.5570f 
   84.60000m  699.9938m   50.5570f 
   84.70000m  699.9938m   50.5570f 
   84.80000m  699.9938m   50.5570f 
   84.90000m  699.9938m   50.5570f 
   85.00000m  699.9939m   50.5570f 
   85.10000m  699.9939m   50.5570f 
   85.20000m  699.9939m   50.5570f 
   85.30000m  699.9939m   50.5570f 
   85.40000m  699.9939m   50.5570f 
   85.50000m  699.9939m   50.5569f 
   85.60000m  699.9939m   50.5569f 
   85.70000m  699.9939m   50.5569f 
   85.80000m  699.9939m   50.5569f 
   85.90000m  699.9939m   50.5569f 
   86.00000m  699.9939m   50.5569f 
   86.10000m  699.9939m   50.5569f 
   86.20000m  699.9939m   50.5569f 
   86.30000m  699.9939m   50.5569f 
   86.40000m  699.9939m   50.5569f 
   86.50000m  699.9939m   50.5569f 
   86.60000m  699.9939m   50.5569f 
   86.70000m  699.9939m   50.5569f 
   86.80000m  699.9939m   50.5569f 
   86.90000m  699.9939m   50.5569f 
   87.00000m  699.9939m   50.5569f 
   87.10000m  699.9939m   50.5569f 
   87.20000m  699.9939m   50.5569f 
   87.30000m  699.9939m   50.5569f 
   87.40000m  699.9939m   50.5569f 
   87.50000m  699.9939m   50.5569f 
   87.60000m  699.9939m   50.5569f 
   87.70000m  699.9939m   50.5569f 
   87.80000m  699.9939m   50.5569f 
   87.90000m  699.9939m   50.5569f 
   88.00000m  699.9939m   50.5569f 
   88.10000m  699.9939m   50.5569f 
   88.20000m  699.9939m   50.5569f 
   88.30000m  699.9939m   50.5569f 
   88.40000m  699.9939m   50.5569f 
   88.50000m  699.9939m   50.5569f 
   88.60000m  699.9939m   50.5569f 
   88.70000m  699.9939m   50.5569f 
   88.80000m  699.9939m   50.5569f 
   88.90000m  699.9939m   50.5569f 
   89.00000m  699.9939m   50.5569f 
   89.10000m  699.9939m   50.5569f 
   89.20000m  699.9939m   50.5569f 
   89.30000m  699.9939m   50.5569f 
   89.40000m  699.9939m   50.5569f 
   89.50000m  699.9939m   50.5569f 
   89.60000m  699.9939m   50.5569f 
   89.70000m  699.9939m   50.5569f 
   89.80000m  699.9939m   50.5569f 
   89.90000m  699.9939m   50.5569f 
   90.00000m  699.9939m   50.5569f 
   90.10000m  699.9939m   50.5569f 
   90.20000m  699.9939m   50.5569f 
   90.30000m  699.9939m   50.5569f 
   90.40000m  699.9939m   50.5569f 
   90.50000m  699.9939m   50.5569f 
   90.60000m  699.9939m   50.5569f 
   90.70000m  699.9939m   50.5569f 
   90.80000m  699.9939m   50.5569f 
   90.90000m  699.9939m   50.5569f 
   91.00000m  699.9939m   50.5569f 
   91.10000m  699.9939m   50.5569f 
   91.20000m  699.9939m   50.5569f 
   91.30000m  699.9939m   50.5569f 
   91.40000m  699.9939m   50.5569f 
   91.50000m  699.9939m   50.5569f 
   91.60000m  699.9939m   50.5569f 
   91.70000m  699.9939m   50.5569f 
   91.80000m  699.9939m   50.5569f 
   91.90000m  699.9939m   50.5569f 
   92.00000m  699.9939m   50.5569f 
   92.10000m  699.9939m   50.5569f 
   92.20000m  699.9939m   50.5569f 
   92.30000m  699.9939m   50.5569f 
   92.40000m  699.9939m   50.5568f 
   92.50000m  699.9939m   50.5568f 
   92.60000m  699.9939m   50.5568f 
   92.70000m  699.9939m   50.5568f 
   92.80000m  699.9939m   50.5568f 
   92.90000m  699.9939m   50.5568f 
   93.00000m  699.9939m   50.5568f 
   93.10000m  699.9939m   50.5568f 
   93.20000m  699.9939m   50.5568f 
   93.30000m  699.9939m   50.5568f 
   93.40000m  699.9939m   50.5568f 
   93.50000m  699.9939m   50.5568f 
   93.60000m  699.9939m   50.5568f 
   93.70000m  699.9939m   50.5568f 
   93.80000m  699.9939m   50.5568f 
   93.90000m  699.9939m   50.5568f 
   94.00000m  699.9939m   50.5568f 
   94.10000m  699.9939m   50.5568f 
   94.20000m  699.9939m   50.5568f 
   94.30000m  699.9939m   50.5568f 
   94.40000m  699.9939m   50.5568f 
   94.50000m  699.9939m   50.5568f 
   94.60000m  699.9939m   50.5568f 
   94.70000m  699.9939m   50.5568f 
   94.80000m  699.9939m   50.5568f 
   94.90000m  699.9939m   50.5568f 
   95.00000m  699.9940m   50.5568f 
   95.10000m  699.9940m   50.5568f 
   95.20000m  699.9940m   50.5568f 
   95.30000m  699.9940m   50.5568f 
   95.40000m  699.9940m   50.5568f 
   95.50000m  699.9940m   50.5568f 
   95.60000m  699.9940m   50.5568f 
   95.70000m  699.9940m   50.5568f 
   95.80000m  699.9940m   50.5568f 
   95.90000m  699.9940m   50.5568f 
   96.00000m  699.9940m   50.5568f 
   96.10000m  699.9940m   50.5568f 
   96.20000m  699.9940m   50.5568f 
   96.30000m  699.9940m   50.5568f 
   96.40000m  699.9940m   50.5568f 
   96.50000m  699.9940m   50.5568f 
   96.60000m  699.9940m   50.5568f 
   96.70000m  699.9940m   50.5568f 
   96.80000m  699.9940m   50.5568f 
   96.90000m  699.9940m   50.5568f 
   97.00000m  699.9940m   50.5568f 
   97.10000m  699.9940m   50.5568f 
   97.20000m  699.9940m   50.5568f 
   97.30000m  699.9940m   50.5568f 
   97.40000m  699.9940m   50.5568f 
   97.50000m  699.9940m   50.5568f 
   97.60000m  699.9940m   50.5568f 
   97.70000m  699.9940m   50.5568f 
   97.80000m  699.9940m   50.5568f 
   97.90000m  699.9940m   50.5568f 
   98.00000m  699.9940m   50.5568f 
   98.10000m  699.9940m   50.5568f 
   98.20000m  699.9940m   50.5568f 
   98.30000m  699.9940m   50.5568f 
   98.40000m  699.9940m   50.5568f 
   98.50000m  699.9940m   50.5568f 
   98.60000m  699.9940m   50.5568f 
   98.70000m  699.9940m   50.5568f 
   98.80000m  699.9940m   50.5568f 
   98.90000m  699.9940m   50.5568f 
   99.00000m  699.9940m   50.5568f 
   99.10000m  699.9940m   50.5568f 
   99.20000m  699.9940m   50.5567f 
   99.30000m  699.9940m   50.5567f 
   99.40000m  699.9940m   50.5567f 
   99.50000m  699.9940m   50.5567f 
   99.60000m  699.9940m   50.5567f 
   99.70000m  699.9940m   50.5567f 
   99.80000m  699.9940m   50.5567f 
   99.90000m  699.9940m   50.5567f 
  100.00000m  699.9940m   50.5567f 
  100.10000m  699.9940m   50.5567f 
  100.20000m  699.9940m   50.5567f 
  100.30000m  699.9940m   50.5567f 
  100.40000m  699.9940m   50.5567f 
  100.50000m  699.9940m   50.5567f 
  100.60000m  699.9940m   50.5567f 
  100.70000m  699.9940m   50.5567f 
  100.80000m  699.9940m   50.5567f 
  100.90000m  699.9940m   50.5567f 
  101.00000m  699.9940m   50.5567f 
  101.10000m  699.9940m   50.5567f 
  101.20000m  699.9940m   50.5567f 
  101.30000m  699.9940m   50.5567f 
  101.40000m  699.9940m   50.5567f 
  101.50000m  699.9940m   50.5567f 
  101.60000m  699.9940m   50.5567f 
  101.70000m  699.9940m   50.5567f 
  101.80000m  699.9940m   50.5567f 
  101.90000m  699.9940m   50.5567f 
  102.00000m  699.9940m   50.5567f 
  102.10000m  699.9940m   50.5567f 
  102.20000m  699.9940m   50.5567f 
  102.30000m  699.9940m   50.5567f 
  102.40000m  699.9940m   50.5567f 
  102.50000m  699.9940m   50.5567f 
  102.60000m  699.9940m   50.5567f 
  102.70000m  699.9940m   50.5567f 
  102.80000m  699.9940m   50.5567f 
  102.90000m  699.9940m   50.5567f 
  103.00000m  699.9940m   50.5567f 
  103.10000m  699.9940m   50.5567f 
  103.20000m  699.9940m   50.5567f 
  103.30000m  699.9940m   50.5567f 
  103.40000m  699.9940m   50.5567f 
  103.50000m  699.9940m   50.5567f 
  103.60000m  699.9940m   50.5567f 
  103.70000m  699.9940m   50.5567f 
  103.80000m  699.9940m   50.5567f 
  103.90000m  699.9940m   50.5567f 
  104.00000m  699.9940m   50.5567f 
  104.10000m  699.9940m   50.5567f 
  104.20000m  699.9940m   50.5567f 
  104.30000m  699.9940m   50.5567f 
  104.40000m  699.9940m   50.5567f 
  104.50000m  699.9940m   50.5567f 
  104.60000m  699.9940m   50.5567f 
  104.70000m  699.9940m   50.5567f 
  104.80000m  699.9940m   50.5567f 
  104.90000m  699.9940m   50.5567f 
  105.00000m  699.9941m   50.5567f 
  105.10000m  699.9941m   50.5567f 
  105.20000m  699.9941m   50.5567f 
  105.30000m  699.9941m   50.5567f 
  105.40000m  699.9941m   50.5567f 
  105.50000m  699.9941m   50.5567f 
  105.60000m  699.9941m   50.5567f 
  105.70000m  699.9941m   50.5567f 
  105.80000m  699.9941m   50.5567f 
  105.90000m  699.9941m   50.5567f 
  106.00000m  699.9941m   50.5567f 
  106.10000m  699.9941m   50.5566f 
  106.20000m  699.9941m   50.5566f 
  106.30000m  699.9941m   50.5566f 
  106.40000m  699.9941m   50.5566f 
  106.50000m  699.9941m   50.5566f 
  106.60000m  699.9941m   50.5566f 
  106.70000m  699.9941m   50.5566f 
  106.80000m  699.9941m   50.5566f 
  106.90000m  699.9941m   50.5566f 
  107.00000m  699.9941m   50.5566f 
  107.10000m  699.9941m   50.5566f 
  107.20000m  699.9941m   50.5566f 
  107.30000m  699.9941m   50.5566f 
  107.40000m  699.9941m   50.5566f 
  107.50000m  699.9941m   50.5566f 
  107.60000m  699.9941m   50.5566f 
  107.70000m  699.9941m   50.5566f 
  107.80000m  699.9941m   50.5566f 
  107.90000m  699.9941m   50.5566f 
  108.00000m  699.9941m   50.5566f 
  108.10000m  699.9941m   50.5566f 
  108.20000m  699.9941m   50.5566f 
  108.30000m  699.9941m   50.5566f 
  108.40000m  699.9941m   50.5566f 
  108.50000m  699.9941m   50.5566f 
  108.60000m  699.9941m   50.5566f 
  108.70000m  699.9941m   50.5566f 
  108.80000m  699.9941m   50.5566f 
  108.90000m  699.9941m   50.5566f 
  109.00000m  699.9941m   50.5566f 
  109.10000m  699.9941m   50.5566f 
  109.20000m  699.9941m   50.5566f 
  109.30000m  699.9941m   50.5566f 
  109.40000m  699.9941m   50.5566f 
  109.50000m  699.9941m   50.5566f 
  109.60000m  699.9941m   50.5566f 
  109.70000m  699.9941m   50.5566f 
  109.80000m  699.9941m   50.5566f 
  109.90000m  699.9941m   50.5566f 
  110.00000m  699.9941m   50.5566f 
  110.10000m  699.9941m   50.5566f 
  110.20000m  699.9941m   50.5566f 
  110.30000m  699.9941m   50.5566f 
  110.40000m  699.9941m   50.5566f 
  110.50000m  699.9941m   50.5566f 
  110.60000m  699.9941m   50.5566f 
  110.70000m  699.9941m   50.5566f 
  110.80000m  699.9941m   50.5566f 
  110.90000m  699.9941m   50.5566f 
  111.00000m  699.9941m   50.5566f 
  111.10000m  699.9941m   50.5566f 
  111.20000m  699.9941m   50.5566f 
  111.30000m  699.9941m   50.5566f 
  111.40000m  699.9941m   50.5566f 
  111.50000m  699.9941m   50.5566f 
  111.60000m  699.9941m   50.5566f 
  111.70000m  699.9941m   50.5566f 
  111.80000m  699.9941m   50.5566f 
  111.90000m  699.9941m   50.5566f 
  112.00000m  699.9941m   50.5566f 
  112.10000m  699.9941m   50.5566f 
  112.20000m  699.9941m   50.5566f 
  112.30000m  699.9941m   50.5566f 
  112.40000m  699.9941m   50.5566f 
  112.50000m  699.9941m   50.5566f 
  112.60000m  699.9941m   50.5566f 
  112.70000m  699.9941m   50.5566f 
  112.80000m  699.9941m   50.5566f 
  112.90000m  699.9941m   50.5566f 
  113.00000m  699.9941m   50.5565f 
  113.10000m  699.9941m   50.5565f 
  113.20000m  699.9941m   50.5565f 
  113.30000m  699.9941m   50.5565f 
  113.40000m  699.9941m   50.5565f 
  113.50000m  699.9941m   50.5565f 
  113.60000m  699.9941m   50.5565f 
  113.70000m  699.9941m   50.5565f 
  113.80000m  699.9941m   50.5565f 
  113.90000m  699.9941m   50.5565f 
  114.00000m  699.9941m   50.5565f 
  114.10000m  699.9941m   50.5565f 
  114.20000m  699.9941m   50.5565f 
  114.30000m  699.9941m   50.5565f 
  114.40000m  699.9941m   50.5565f 
  114.50000m  699.9941m   50.5565f 
  114.60000m  699.9941m   50.5565f 
  114.70000m  699.9941m   50.5565f 
  114.80000m  699.9941m   50.5565f 
  114.90000m  699.9941m   50.5565f 
  115.00000m  699.9942m   50.5565f 
  115.10000m  699.9942m   50.5565f 
  115.20000m  699.9942m   50.5565f 
  115.30000m  699.9942m   50.5565f 
  115.40000m  699.9942m   50.5565f 
  115.50000m  699.9942m   50.5565f 
  115.60000m  699.9942m   50.5565f 
  115.70000m  699.9942m   50.5565f 
  115.80000m  699.9942m   50.5565f 
  115.90000m  699.9942m   50.5565f 
  116.00000m  699.9942m   50.5565f 
  116.10000m  699.9942m   50.5565f 
  116.20000m  699.9942m   50.5565f 
  116.30000m  699.9942m   50.5565f 
  116.40000m  699.9942m   50.5565f 
  116.50000m  699.9942m   50.5565f 
  116.60000m  699.9942m   50.5565f 
  116.70000m  699.9942m   50.5565f 
  116.80000m  699.9942m   50.5565f 
  116.90000m  699.9942m   50.5565f 
  117.00000m  699.9942m   50.5565f 
  117.10000m  699.9942m   50.5565f 
  117.20000m  699.9942m   50.5565f 
  117.30000m  699.9942m   50.5565f 
  117.40000m  699.9942m   50.5565f 
  117.50000m  699.9942m   50.5565f 
  117.60000m  699.9942m   50.5565f 
  117.70000m  699.9942m   50.5565f 
  117.80000m  699.9942m   50.5565f 
  117.90000m  699.9942m   50.5565f 
  118.00000m  699.9942m   50.5565f 
  118.10000m  699.9942m   50.5565f 
  118.20000m  699.9942m   50.5565f 
  118.30000m  699.9942m   50.5565f 
  118.40000m  699.9942m   50.5565f 
  118.50000m  699.9942m   50.5565f 
  118.60000m  699.9942m   50.5565f 
  118.70000m  699.9942m   50.5565f 
  118.80000m  699.9942m   50.5565f 
  118.90000m  699.9942m   50.5565f 
  119.00000m  699.9942m   50.5565f 
  119.10000m  699.9942m   50.5565f 
  119.20000m  699.9942m   50.5565f 
  119.30000m  699.9942m   50.5565f 
  119.40000m  699.9942m   50.5565f 
  119.50000m  699.9942m   50.5565f 
  119.60000m  699.9942m   50.5565f 
  119.70000m  699.9942m   50.5565f 
  119.80000m  699.9942m   50.5565f 
  119.90000m  699.9942m   50.5564f 
  120.00000m  699.9942m   50.5564f 
  120.10000m  699.9942m   50.5564f 
  120.20000m  699.9942m   50.5564f 
  120.30000m  699.9942m   50.5564f 
  120.40000m  699.9942m   50.5564f 
  120.50000m  699.9942m   50.5564f 
  120.60000m  699.9942m   50.5564f 
  120.70000m  699.9942m   50.5564f 
  120.80000m  699.9942m   50.5564f 
  120.90000m  699.9942m   50.5564f 
  121.00000m  699.9942m   50.5564f 
  121.10000m  699.9942m   50.5564f 
  121.20000m  699.9942m   50.5564f 
  121.30000m  699.9942m   50.5564f 
  121.40000m  699.9942m   50.5564f 
  121.50000m  699.9942m   50.5564f 
  121.60000m  699.9942m   50.5564f 
  121.70000m  699.9942m   50.5564f 
  121.80000m  699.9942m   50.5564f 
  121.90000m  699.9942m   50.5564f 
  122.00000m  699.9942m   50.5564f 
  122.10000m  699.9942m   50.5564f 
  122.20000m  699.9942m   50.5564f 
  122.30000m  699.9942m   50.5564f 
  122.40000m  699.9942m   50.5564f 
  122.50000m  699.9942m   50.5564f 
  122.60000m  699.9942m   50.5564f 
  122.70000m  699.9942m   50.5564f 
  122.80000m  699.9942m   50.5564f 
  122.90000m  699.9942m   50.5564f 
  123.00000m  699.9942m   50.5564f 
  123.10000m  699.9942m   50.5564f 
  123.20000m  699.9942m   50.5564f 
  123.30000m  699.9942m   50.5564f 
  123.40000m  699.9942m   50.5564f 
  123.50000m  699.9942m   50.5564f 
  123.60000m  699.9942m   50.5564f 
  123.70000m  699.9942m   50.5564f 
  123.80000m  699.9942m   50.5564f 
  123.90000m  699.9942m   50.5564f 
  124.00000m  699.9942m   50.5564f 
  124.10000m  699.9942m   50.5564f 
  124.20000m  699.9942m   50.5564f 
  124.30000m  699.9942m   50.5564f 
  124.40000m  699.9942m   50.5564f 
  124.50000m  699.9942m   50.5564f 
  124.60000m  699.9942m   50.5564f 
  124.70000m  699.9942m   50.5564f 
  124.80000m  699.9942m   50.5564f 
  124.90000m  699.9942m   50.5564f 
  125.00000m  699.9943m   50.5564f 
  125.10000m  699.9943m   50.5564f 
  125.20000m  699.9943m   50.5564f 
  125.30000m  699.9943m   50.5564f 
  125.40000m  699.9943m   50.5564f 
  125.50000m  699.9943m   50.5564f 
  125.60000m  699.9943m   50.5564f 
  125.70000m  699.9943m   50.5564f 
  125.80000m  699.9943m   50.5564f 
  125.90000m  699.9943m   50.5564f 
  126.00000m  699.9943m   50.5564f 
  126.10000m  699.9943m   50.5564f 
  126.20000m  699.9943m   50.5564f 
  126.30000m  699.9943m   50.5564f 
  126.40000m  699.9943m   50.5564f 
  126.50000m  699.9943m   50.5564f 
  126.60000m  699.9943m   50.5564f 
  126.70000m  699.9943m   50.5564f 
  126.80000m  699.9943m   50.5563f 
  126.90000m  699.9943m   50.5563f 
  127.00000m  699.9943m   50.5563f 
  127.10000m  699.9943m   50.5563f 
  127.20000m  699.9943m   50.5563f 
  127.30000m  699.9943m   50.5563f 
  127.40000m  699.9943m   50.5563f 
  127.50000m  699.9943m   50.5563f 
  127.60000m  699.9943m   50.5563f 
  127.70000m  699.9943m   50.5563f 
  127.80000m  699.9943m   50.5563f 
  127.90000m  699.9943m   50.5563f 
  128.00000m  699.9943m   50.5563f 
  128.10000m  699.9943m   50.5563f 
  128.20000m  699.9943m   50.5563f 
  128.30000m  699.9943m   50.5563f 
  128.40000m  699.9943m   50.5563f 
  128.50000m  699.9943m   50.5563f 
  128.60000m  699.9943m   50.5563f 
  128.70000m  699.9943m   50.5563f 
  128.80000m  699.9943m   50.5563f 
  128.90000m  699.9943m   50.5563f 
  129.00000m  699.9943m   50.5563f 
  129.10000m  699.9943m   50.5563f 
  129.20000m  699.9943m   50.5563f 
  129.30000m  699.9943m   50.5563f 
  129.40000m  699.9943m   50.5563f 
  129.50000m  699.9943m   50.5563f 
  129.60000m  699.9943m   50.5563f 
  129.70000m  699.9943m   50.5563f 
  129.80000m  699.9943m   50.5563f 
  129.90000m  699.9943m   50.5563f 
  130.00000m  699.9943m   50.5563f 
  130.10000m  699.9943m   50.5563f 
  130.20000m  699.9943m   50.5563f 
  130.30000m  699.9943m   50.5563f 
  130.40000m  699.9943m   50.5563f 
  130.50000m  699.9943m   50.5563f 
  130.60000m  699.9943m   50.5563f 
  130.70000m  699.9943m   50.5563f 
  130.80000m  699.9943m   50.5563f 
  130.90000m  699.9943m   50.5563f 
  131.00000m  699.9943m   50.5563f 
  131.10000m  699.9943m   50.5563f 
  131.20000m  699.9943m   50.5563f 
  131.30000m  699.9943m   50.5563f 
  131.40000m  699.9943m   50.5563f 
  131.50000m  699.9943m   50.5563f 
  131.60000m  699.9943m   50.5563f 
  131.70000m  699.9943m   50.5563f 
  131.80000m  699.9943m   50.5563f 
  131.90000m  699.9943m   50.5563f 
  132.00000m  699.9943m   50.5563f 
  132.10000m  699.9943m   50.5563f 
  132.20000m  699.9943m   50.5563f 
  132.30000m  699.9943m   50.5563f 
  132.40000m  699.9943m   50.5563f 
  132.50000m  699.9943m   50.5563f 
  132.60000m  699.9943m   50.5563f 
  132.70000m  699.9943m   50.5563f 
  132.80000m  699.9943m   50.5563f 
  132.90000m  699.9943m   50.5563f 
  133.00000m  699.9943m   50.5563f 
  133.10000m  699.9943m   50.5563f 
  133.20000m  699.9943m   50.5563f 
  133.30000m  699.9943m   50.5563f 
  133.40000m  699.9943m   50.5563f 
  133.50000m  699.9943m   50.5563f 
  133.60000m  699.9943m   50.5562f 
  133.70000m  699.9943m   50.5562f 
  133.80000m  699.9943m   50.5562f 
  133.90000m  699.9943m   50.5562f 
  134.00000m  699.9943m   50.5562f 
  134.10000m  699.9943m   50.5562f 
  134.20000m  699.9943m   50.5562f 
  134.30000m  699.9943m   50.5562f 
  134.40000m  699.9943m   50.5562f 
  134.50000m  699.9943m   50.5562f 
  134.60000m  699.9943m   50.5562f 
  134.70000m  699.9943m   50.5562f 
  134.80000m  699.9943m   50.5562f 
  134.90000m  699.9943m   50.5562f 
  135.00000m  699.9944m   50.5562f 
  135.10000m  699.9944m   50.5562f 
  135.20000m  699.9944m   50.5562f 
  135.30000m  699.9944m   50.5562f 
  135.40000m  699.9944m   50.5562f 
  135.50000m  699.9944m   50.5562f 
  135.60000m  699.9944m   50.5562f 
  135.70000m  699.9944m   50.5562f 
  135.80000m  699.9944m   50.5562f 
  135.90000m  699.9944m   50.5562f 
  136.00000m  699.9944m   50.5562f 
  136.10000m  699.9944m   50.5562f 
  136.20000m  699.9944m   50.5562f 
  136.30000m  699.9944m   50.5562f 
  136.40000m  699.9944m   50.5562f 
  136.50000m  699.9944m   50.5562f 
  136.60000m  699.9944m   50.5562f 
  136.70000m  699.9944m   50.5562f 
  136.80000m  699.9944m   50.5562f 
  136.90000m  699.9944m   50.5562f 
  137.00000m  699.9944m   50.5562f 
  137.10000m  699.9944m   50.5562f 
  137.20000m  699.9944m   50.5562f 
  137.30000m  699.9944m   50.5562f 
  137.40000m  699.9944m   50.5562f 
  137.50000m  699.9944m   50.5562f 
  137.60000m  699.9944m   50.5562f 
  137.70000m  699.9944m   50.5562f 
  137.80000m  699.9944m   50.5562f 
  137.90000m  699.9944m   50.5562f 
  138.00000m  699.9944m   50.5562f 
  138.10000m  699.9944m   50.5562f 
  138.20000m  699.9944m   50.5562f 
  138.30000m  699.9944m   50.5562f 
  138.40000m  699.9944m   50.5562f 
  138.50000m  699.9944m   50.5562f 
  138.60000m  699.9944m   50.5562f 
  138.70000m  699.9944m   50.5562f 
  138.80000m  699.9944m   50.5562f 
  138.90000m  699.9944m   50.5562f 
  139.00000m  699.9944m   50.5562f 
  139.10000m  699.9944m   50.5562f 
  139.20000m  699.9944m   50.5562f 
  139.30000m  699.9944m   50.5562f 
  139.40000m  699.9944m   50.5562f 
  139.50000m  699.9944m   50.5562f 
  139.60000m  699.9944m   50.5562f 
  139.70000m  699.9944m   50.5562f 
  139.80000m  699.9944m   50.5562f 
  139.90000m  699.9944m   50.5562f 
  140.00000m  699.9944m   50.5562f 
  140.10000m  699.9944m   50.5562f 
  140.20000m  699.9944m   50.5562f 
  140.30000m  699.9944m   50.5562f 
  140.40000m  699.9944m   50.5562f 
  140.50000m  699.9944m   50.5561f 
  140.60000m  699.9944m   50.5561f 
  140.70000m  699.9944m   50.5561f 
  140.80000m  699.9944m   50.5561f 
  140.90000m  699.9944m   50.5561f 
  141.00000m  699.9944m   50.5561f 
  141.10000m  699.9944m   50.5561f 
  141.20000m  699.9944m   50.5561f 
  141.30000m  699.9944m   50.5561f 
  141.40000m  699.9944m   50.5561f 
  141.50000m  699.9944m   50.5561f 
  141.60000m  699.9944m   50.5561f 
  141.70000m  699.9944m   50.5561f 
  141.80000m  699.9944m   50.5561f 
  141.90000m  699.9944m   50.5561f 
  142.00000m  699.9944m   50.5561f 
  142.10000m  699.9944m   50.5561f 
  142.20000m  699.9944m   50.5561f 
  142.30000m  699.9944m   50.5561f 
  142.40000m  699.9944m   50.5561f 
  142.50000m  699.9944m   50.5561f 
  142.60000m  699.9944m   50.5561f 
  142.70000m  699.9944m   50.5561f 
  142.80000m  699.9944m   50.5561f 
  142.90000m  699.9944m   50.5561f 
  143.00000m  699.9944m   50.5561f 
  143.10000m  699.9944m   50.5561f 
  143.20000m  699.9944m   50.5561f 
  143.30000m  699.9944m   50.5561f 
  143.40000m  699.9944m   50.5561f 
  143.50000m  699.9944m   50.5561f 
  143.60000m  699.9944m   50.5561f 
  143.70000m  699.9944m   50.5561f 
  143.80000m  699.9944m   50.5561f 
  143.90000m  699.9944m   50.5561f 
  144.00000m  699.9944m   50.5561f 
  144.10000m  699.9944m   50.5561f 
  144.20000m  699.9944m   50.5561f 
  144.30000m  699.9944m   50.5561f 
  144.40000m  699.9944m   50.5561f 
  144.50000m  699.9944m   50.5561f 
  144.60000m  699.9944m   50.5561f 
  144.70000m  699.9944m   50.5561f 
  144.80000m  699.9944m   50.5561f 
  144.90000m  699.9944m   50.5561f 
  145.00000m  699.9945m   50.5561f 
  145.10000m  699.9945m   50.5561f 
  145.20000m  699.9945m   50.5561f 
  145.30000m  699.9945m   50.5561f 
  145.40000m  699.9945m   50.5561f 
  145.50000m  699.9945m   50.5561f 
  145.60000m  699.9945m   50.5561f 
  145.70000m  699.9945m   50.5561f 
  145.80000m  699.9945m   50.5561f 
  145.90000m  699.9945m   50.5561f 
  146.00000m  699.9945m   50.5561f 
  146.10000m  699.9945m   50.5561f 
  146.20000m  699.9945m   50.5561f 
  146.30000m  699.9945m   50.5561f 
  146.40000m  699.9945m   50.5561f 
  146.50000m  699.9945m   50.5561f 
  146.60000m  699.9945m   50.5561f 
  146.70000m  699.9945m   50.5561f 
  146.80000m  699.9945m   50.5561f 
  146.90000m  699.9945m   50.5561f 
  147.00000m  699.9945m   50.5561f 
  147.10000m  699.9945m   50.5561f 
  147.20000m  699.9945m   50.5561f 
  147.30000m  699.9945m   50.5561f 
  147.40000m  699.9945m   50.5560f 
  147.50000m  699.9945m   50.5560f 
  147.60000m  699.9945m   50.5560f 
  147.70000m  699.9945m   50.5560f 
  147.80000m  699.9945m   50.5560f 
  147.90000m  699.9945m   50.5560f 
  148.00000m  699.9945m   50.5560f 
  148.10000m  699.9945m   50.5560f 
  148.20000m  699.9945m   50.5560f 
  148.30000m  699.9945m   50.5560f 
  148.40000m  699.9945m   50.5560f 
  148.50000m  699.9945m   50.5560f 
  148.60000m  699.9945m   50.5560f 
  148.70000m  699.9945m   50.5560f 
  148.80000m  699.9945m   50.5560f 
  148.90000m  699.9945m   50.5560f 
  149.00000m  699.9945m   50.5560f 
  149.10000m  699.9945m   50.5560f 
  149.20000m  699.9945m   50.5560f 
  149.30000m  699.9945m   50.5560f 
  149.40000m  699.9945m   50.5560f 
  149.50000m  699.9945m   50.5560f 
  149.60000m  699.9945m   50.5560f 
  149.70000m  699.9945m   50.5560f 
  149.80000m  699.9945m   50.5560f 
  149.90000m  699.9945m   50.5560f 
  150.00000m  699.9945m   50.5560f 
  150.10000m  699.9945m   50.5560f 
  150.20000m  699.9945m   50.5560f 
  150.30000m  699.9945m   50.5560f 
  150.40000m  699.9945m   50.5560f 
  150.50000m  699.9945m   50.5560f 
  150.60000m  699.9945m   50.5560f 
  150.70000m  699.9945m   50.5560f 
  150.80000m  699.9945m   50.5560f 
  150.90000m  699.9945m   50.5560f 
  151.00000m  699.9945m   50.5560f 
  151.10000m  699.9945m   50.5560f 
  151.20000m  699.9945m   50.5560f 
  151.30000m  699.9945m   50.5560f 
  151.40000m  699.9945m   50.5560f 
  151.50000m  699.9945m   50.5560f 
  151.60000m  699.9945m   50.5560f 
  151.70000m  699.9945m   50.5560f 
  151.80000m  699.9945m   50.5560f 
  151.90000m  699.9945m   50.5560f 
  152.00000m  699.9945m   50.5560f 
  152.10000m  699.9945m   50.5560f 
  152.20000m  699.9945m   50.5560f 
  152.30000m  699.9945m   50.5560f 
  152.40000m  699.9945m   50.5560f 
  152.50000m  699.9945m   50.5560f 
  152.60000m  699.9945m   50.5560f 
  152.70000m  699.9945m   50.5560f 
  152.80000m  699.9945m   50.5560f 
  152.90000m  699.9945m   50.5560f 
  153.00000m  699.9945m   50.5560f 
  153.10000m  699.9945m   50.5560f 
  153.20000m  699.9945m   50.5560f 
  153.30000m  699.9945m   50.5560f 
  153.40000m  699.9945m   50.5560f 
  153.50000m  699.9945m   50.5560f 
  153.60000m  699.9945m   50.5560f 
  153.70000m  699.9945m   50.5560f 
  153.80000m  699.9945m   50.5560f 
  153.90000m  699.9945m   50.5560f 
  154.00000m  699.9945m   50.5560f 
  154.10000m  699.9945m   50.5560f 
  154.20000m  699.9945m   50.5560f 
  154.30000m  699.9945m   50.5559f 
  154.40000m  699.9945m   50.5559f 
  154.50000m  699.9945m   50.5559f 
  154.60000m  699.9945m   50.5559f 
  154.70000m  699.9945m   50.5559f 
  154.80000m  699.9945m   50.5559f 
  154.90000m  699.9945m   50.5559f 
  155.00000m  699.9946m   50.5559f 
  155.10000m  699.9946m   50.5559f 
  155.20000m  699.9946m   50.5559f 
  155.30000m  699.9946m   50.5559f 
  155.40000m  699.9946m   50.5559f 
  155.50000m  699.9946m   50.5559f 
  155.60000m  699.9946m   50.5559f 
  155.70000m  699.9946m   50.5559f 
  155.80000m  699.9946m   50.5559f 
  155.90000m  699.9946m   50.5559f 
  156.00000m  699.9946m   50.5559f 
  156.10000m  699.9946m   50.5559f 
  156.20000m  699.9946m   50.5559f 
  156.30000m  699.9946m   50.5559f 
  156.40000m  699.9946m   50.5559f 
  156.50000m  699.9946m   50.5559f 
  156.60000m  699.9946m   50.5559f 
  156.70000m  699.9946m   50.5559f 
  156.80000m  699.9946m   50.5559f 
  156.90000m  699.9946m   50.5559f 
  157.00000m  699.9946m   50.5559f 
  157.10000m  699.9946m   50.5559f 
  157.20000m  699.9946m   50.5559f 
  157.30000m  699.9946m   50.5559f 
  157.40000m  699.9946m   50.5559f 
  157.50000m  699.9946m   50.5559f 
  157.60000m  699.9946m   50.5559f 
  157.70000m  699.9946m   50.5559f 
  157.80000m  699.9946m   50.5559f 
  157.90000m  699.9946m   50.5559f 
  158.00000m  699.9946m   50.5559f 
  158.10000m  699.9946m   50.5559f 
  158.20000m  699.9946m   50.5559f 
  158.30000m  699.9946m   50.5559f 
  158.40000m  699.9946m   50.5559f 
  158.50000m  699.9946m   50.5559f 
  158.60000m  699.9946m   50.5559f 
  158.70000m  699.9946m   50.5559f 
  158.80000m  699.9946m   50.5559f 
  158.90000m  699.9946m   50.5559f 
  159.00000m  699.9946m   50.5559f 
  159.10000m  699.9946m   50.5559f 
  159.20000m  699.9946m   50.5559f 
  159.30000m  699.9946m   50.5559f 
  159.40000m  699.9946m   50.5559f 
  159.50000m  699.9946m   50.5559f 
  159.60000m  699.9946m   50.5559f 
  159.70000m  699.9946m   50.5559f 
  159.80000m  699.9946m   50.5559f 
  159.90000m  699.9946m   50.5559f 
  160.00000m  699.9946m   50.5559f 
  160.10000m  699.9946m   50.5559f 
  160.20000m  699.9946m   50.5559f 
  160.30000m  699.9946m   50.5559f 
  160.40000m  699.9946m   50.5559f 
  160.50000m  699.9946m   50.5559f 
  160.60000m  699.9946m   50.5559f 
  160.70000m  699.9946m   50.5559f 
  160.80000m  699.9946m   50.5559f 
  160.90000m  699.9946m   50.5559f 
  161.00000m  699.9946m   50.5559f 
  161.10000m  699.9946m   50.5558f 
  161.20000m  699.9946m   50.5558f 
  161.30000m  699.9946m   50.5558f 
  161.40000m  699.9946m   50.5558f 
  161.50000m  699.9946m   50.5558f 
  161.60000m  699.9946m   50.5558f 
  161.70000m  699.9946m   50.5558f 
  161.80000m  699.9946m   50.5558f 
  161.90000m  699.9946m   50.5558f 
  162.00000m  699.9946m   50.5558f 
  162.10000m  699.9946m   50.5558f 
  162.20000m  699.9946m   50.5558f 
  162.30000m  699.9946m   50.5558f 
  162.40000m  699.9946m   50.5558f 
  162.50000m  699.9946m   50.5558f 
  162.60000m  699.9946m   50.5558f 
  162.70000m  699.9946m   50.5558f 
  162.80000m  699.9946m   50.5558f 
  162.90000m  699.9946m   50.5558f 
  163.00000m  699.9946m   50.5558f 
  163.10000m  699.9946m   50.5558f 
  163.20000m  699.9946m   50.5558f 
  163.30000m  699.9946m   50.5558f 
  163.40000m  699.9946m   50.5558f 
  163.50000m  699.9946m   50.5558f 
  163.60000m  699.9946m   50.5558f 
  163.70000m  699.9946m   50.5558f 
  163.80000m  699.9946m   50.5558f 
  163.90000m  699.9946m   50.5558f 
  164.00000m  699.9946m   50.5558f 
  164.10000m  699.9946m   50.5558f 
  164.20000m  699.9946m   50.5558f 
  164.30000m  699.9946m   50.5558f 
  164.40000m  699.9946m   50.5558f 
  164.50000m  699.9946m   50.5558f 
  164.60000m  699.9946m   50.5558f 
  164.70000m  699.9946m   50.5558f 
  164.80000m  699.9946m   50.5558f 
  164.90000m  699.9946m   50.5558f 
  165.00000m  699.9947m   50.5558f 
  165.10000m  699.9947m   50.5558f 
  165.20000m  699.9947m   50.5558f 
  165.30000m  699.9947m   50.5558f 
  165.40000m  699.9947m   50.5558f 
  165.50000m  699.9947m   50.5558f 
  165.60000m  699.9947m   50.5558f 
  165.70000m  699.9947m   50.5558f 
  165.80000m  699.9947m   50.5558f 
  165.90000m  699.9947m   50.5558f 
  166.00000m  699.9947m   50.5558f 
  166.10000m  699.9947m   50.5558f 
  166.20000m  699.9947m   50.5558f 
  166.30000m  699.9947m   50.5558f 
  166.40000m  699.9947m   50.5558f 
  166.50000m  699.9947m   50.5558f 
  166.60000m  699.9947m   50.5558f 
  166.70000m  699.9947m   50.5558f 
  166.80000m  699.9947m   50.5558f 
  166.90000m  699.9947m   50.5558f 
  167.00000m  699.9947m   50.5558f 
  167.10000m  699.9947m   50.5558f 
  167.20000m  699.9947m   50.5558f 
  167.30000m  699.9947m   50.5558f 
  167.40000m  699.9947m   50.5558f 
  167.50000m  699.9947m   50.5558f 
  167.60000m  699.9947m   50.5558f 
  167.70000m  699.9947m   50.5558f 
  167.80000m  699.9947m   50.5558f 
  167.90000m  699.9947m   50.5558f 
  168.00000m  699.9947m   50.5557f 
  168.10000m  699.9947m   50.5557f 
  168.20000m  699.9947m   50.5557f 
  168.30000m  699.9947m   50.5557f 
  168.40000m  699.9947m   50.5557f 
  168.50000m  699.9947m   50.5557f 
  168.60000m  699.9947m   50.5557f 
  168.70000m  699.9947m   50.5557f 
  168.80000m  699.9947m   50.5557f 
  168.90000m  699.9947m   50.5557f 
  169.00000m  699.9947m   50.5557f 
  169.10000m  699.9947m   50.5557f 
  169.20000m  699.9947m   50.5557f 
  169.30000m  699.9947m   50.5557f 
  169.40000m  699.9947m   50.5557f 
  169.50000m  699.9947m   50.5557f 
  169.60000m  699.9947m   50.5557f 
  169.70000m  699.9947m   50.5557f 
  169.80000m  699.9947m   50.5557f 
  169.90000m  699.9947m   50.5557f 
  170.00000m  699.9947m   50.5557f 
  170.10000m  699.9947m   50.5557f 
  170.20000m  699.9947m   50.5557f 
  170.30000m  699.9947m   50.5557f 
  170.40000m  699.9947m   50.5557f 
  170.50000m  699.9947m   50.5557f 
  170.60000m  699.9947m   50.5557f 
  170.70000m  699.9947m   50.5557f 
  170.80000m  699.9947m   50.5557f 
  170.90000m  699.9947m   50.5557f 
  171.00000m  699.9947m   50.5557f 
  171.10000m  699.9947m   50.5557f 
  171.20000m  699.9947m   50.5557f 
  171.30000m  699.9947m   50.5557f 
  171.40000m  699.9947m   50.5557f 
  171.50000m  699.9947m   50.5557f 
  171.60000m  699.9947m   50.5557f 
  171.70000m  699.9947m   50.5557f 
  171.80000m  699.9947m   50.5557f 
  171.90000m  699.9947m   50.5557f 
  172.00000m  699.9947m   50.5557f 
  172.10000m  699.9947m   50.5557f 
  172.20000m  699.9947m   50.5557f 
  172.30000m  699.9947m   50.5557f 
  172.40000m  699.9947m   50.5557f 
  172.50000m  699.9947m   50.5557f 
  172.60000m  699.9947m   50.5557f 
  172.70000m  699.9947m   50.5557f 
  172.80000m  699.9947m   50.5557f 
  172.90000m  699.9947m   50.5557f 
  173.00000m  699.9947m   50.5557f 
  173.10000m  699.9947m   50.5557f 
  173.20000m  699.9947m   50.5557f 
  173.30000m  699.9947m   50.5557f 
  173.40000m  699.9947m   50.5557f 
  173.50000m  699.9947m   50.5557f 
  173.60000m  699.9947m   50.5557f 
  173.70000m  699.9947m   50.5557f 
  173.80000m  699.9947m   50.5557f 
  173.90000m  699.9947m   50.5557f 
  174.00000m  699.9947m   50.5557f 
  174.10000m  699.9947m   50.5557f 
  174.20000m  699.9947m   50.5557f 
  174.30000m  699.9947m   50.5557f 
  174.40000m  699.9947m   50.5557f 
  174.50000m  699.9947m   50.5557f 
  174.60000m  699.9947m   50.5557f 
  174.70000m  699.9947m   50.5557f 
  174.80000m  699.9947m   50.5557f 
  174.90000m  699.9947m   50.5556f 
  175.00000m  699.9948m   50.5556f 
  175.10000m  699.9948m   50.5556f 
  175.20000m  699.9948m   50.5556f 
  175.30000m  699.9948m   50.5556f 
  175.40000m  699.9948m   50.5556f 
  175.50000m  699.9948m   50.5556f 
  175.60000m  699.9948m   50.5556f 
  175.70000m  699.9948m   50.5556f 
  175.80000m  699.9948m   50.5556f 
  175.90000m  699.9948m   50.5556f 
  176.00000m  699.9948m   50.5556f 
  176.10000m  699.9948m   50.5556f 
  176.20000m  699.9948m   50.5556f 
  176.30000m  699.9948m   50.5556f 
  176.40000m  699.9948m   50.5556f 
  176.50000m  699.9948m   50.5556f 
  176.60000m  699.9948m   50.5556f 
  176.70000m  699.9948m   50.5556f 
  176.80000m  699.9948m   50.5556f 
  176.90000m  699.9948m   50.5556f 
  177.00000m  699.9948m   50.5556f 
  177.10000m  699.9948m   50.5556f 
  177.20000m  699.9948m   50.5556f 
  177.30000m  699.9948m   50.5556f 
  177.40000m  699.9948m   50.5556f 
  177.50000m  699.9948m   50.5556f 
  177.60000m  699.9948m   50.5556f 
  177.70000m  699.9948m   50.5556f 
  177.80000m  699.9948m   50.5556f 
  177.90000m  699.9948m   50.5556f 
  178.00000m  699.9948m   50.5556f 
  178.10000m  699.9948m   50.5556f 
  178.20000m  699.9948m   50.5556f 
  178.30000m  699.9948m   50.5556f 
  178.40000m  699.9948m   50.5556f 
  178.50000m  699.9948m   50.5556f 
  178.60000m  699.9948m   50.5556f 
  178.70000m  699.9948m   50.5556f 
  178.80000m  699.9948m   50.5556f 
  178.90000m  699.9948m   50.5556f 
  179.00000m  699.9948m   50.5556f 
  179.10000m  699.9948m   50.5556f 
  179.20000m  699.9948m   50.5556f 
  179.30000m  699.9948m   50.5556f 
  179.40000m  699.9948m   50.5556f 
  179.50000m  699.9948m   50.5556f 
  179.60000m  699.9948m   50.5556f 
  179.70000m  699.9948m   50.5556f 
  179.80000m  699.9948m   50.5556f 
  179.90000m  699.9948m   50.5556f 
  180.00000m  699.9948m   50.5556f 
  180.10000m  699.9948m   50.5556f 
  180.20000m  699.9948m   50.5556f 
  180.30000m  699.9948m   50.5556f 
  180.40000m  699.9948m   50.5556f 
  180.50000m  699.9948m   50.5556f 
  180.60000m  699.9948m   50.5556f 
  180.70000m  699.9948m   50.5556f 
  180.80000m  699.9948m   50.5556f 
  180.90000m  699.9948m   50.5556f 
  181.00000m  699.9948m   50.5556f 
  181.10000m  699.9948m   50.5556f 
  181.20000m  699.9948m   50.5556f 
  181.30000m  699.9948m   50.5556f 
  181.40000m  699.9948m   50.5556f 
  181.50000m  699.9948m   50.5556f 
  181.60000m  699.9948m   50.5556f 
  181.70000m  699.9948m   50.5556f 
  181.80000m  699.9948m   50.5555f 
  181.90000m  699.9948m   50.5555f 
  182.00000m  699.9948m   50.5555f 
  182.10000m  699.9948m   50.5555f 
  182.20000m  699.9948m   50.5555f 
  182.30000m  699.9948m   50.5555f 
  182.40000m  699.9948m   50.5555f 
  182.50000m  699.9948m   50.5555f 
  182.60000m  699.9948m   50.5555f 
  182.70000m  699.9948m   50.5555f 
  182.80000m  699.9948m   50.5555f 
  182.90000m  699.9948m   50.5555f 
  183.00000m  699.9948m   50.5555f 
  183.10000m  699.9948m   50.5555f 
  183.20000m  699.9948m   50.5555f 
  183.30000m  699.9948m   50.5555f 
  183.40000m  699.9948m   50.5555f 
  183.50000m  699.9948m   50.5555f 
  183.60000m  699.9948m   50.5555f 
  183.70000m  699.9948m   50.5555f 
  183.80000m  699.9948m   50.5555f 
  183.90000m  699.9948m   50.5555f 
  184.00000m  699.9948m   50.5555f 
  184.10000m  699.9948m   50.5555f 
  184.20000m  699.9948m   50.5555f 
  184.30000m  699.9948m   50.5555f 
  184.40000m  699.9948m   50.5555f 
  184.50000m  699.9948m   50.5555f 
  184.60000m  699.9948m   50.5555f 
  184.70000m  699.9948m   50.5555f 
  184.80000m  699.9948m   50.5555f 
  184.90000m  699.9948m   50.5555f 
  185.00000m  699.9949m   50.5555f 
  185.10000m  699.9949m   50.5555f 
  185.20000m  699.9949m   50.5555f 
  185.30000m  699.9949m   50.5555f 
  185.40000m  699.9949m   50.5555f 
  185.50000m  699.9949m   50.5555f 
  185.60000m  699.9949m   50.5555f 
  185.70000m  699.9949m   50.5555f 
  185.80000m  699.9949m   50.5555f 
  185.90000m  699.9949m   50.5555f 
  186.00000m  699.9949m   50.5555f 
  186.10000m  699.9949m   50.5555f 
  186.20000m  699.9949m   50.5555f 
  186.30000m  699.9949m   50.5555f 
  186.40000m  699.9949m   50.5555f 
  186.50000m  699.9949m   50.5555f 
  186.60000m  699.9949m   50.5555f 
  186.70000m  699.9949m   50.5555f 
  186.80000m  699.9949m   50.5555f 
  186.90000m  699.9949m   50.5555f 
  187.00000m  699.9949m   50.5555f 
  187.10000m  699.9949m   50.5555f 
  187.20000m  699.9949m   50.5555f 
  187.30000m  699.9949m   50.5555f 
  187.40000m  699.9949m   50.5555f 
  187.50000m  699.9949m   50.5555f 
  187.60000m  699.9949m   50.5555f 
  187.70000m  699.9949m   50.5555f 
  187.80000m  699.9949m   50.5555f 
  187.90000m  699.9949m   50.5555f 
  188.00000m  699.9949m   50.5555f 
  188.10000m  699.9949m   50.5555f 
  188.20000m  699.9949m   50.5555f 
  188.30000m  699.9949m   50.5555f 
  188.40000m  699.9949m   50.5555f 
  188.50000m  699.9949m   50.5555f 
  188.60000m  699.9949m   50.5554f 
  188.70000m  699.9949m   50.5554f 
  188.80000m  699.9949m   50.5554f 
  188.90000m  699.9949m   50.5554f 
  189.00000m  699.9949m   50.5554f 
  189.10000m  699.9949m   50.5554f 
  189.20000m  699.9949m   50.5554f 
  189.30000m  699.9949m   50.5554f 
  189.40000m  699.9949m   50.5554f 
  189.50000m  699.9949m   50.5554f 
  189.60000m  699.9949m   50.5554f 
  189.70000m  699.9949m   50.5554f 
  189.80000m  699.9949m   50.5554f 
  189.90000m  699.9949m   50.5554f 
  190.00000m  699.9949m   50.5554f 
  190.10000m  699.9949m   50.5554f 
  190.20000m  699.9949m   50.5554f 
  190.30000m  699.9949m   50.5554f 
  190.40000m  699.9949m   50.5554f 
  190.50000m  699.9949m   50.5554f 
  190.60000m  699.9949m   50.5554f 
  190.70000m  699.9949m   50.5554f 
  190.80000m  699.9949m   50.5554f 
  190.90000m  699.9949m   50.5554f 
  191.00000m  699.9949m   50.5554f 
  191.10000m  699.9949m   50.5554f 
  191.20000m  699.9949m   50.5554f 
  191.30000m  699.9949m   50.5554f 
  191.40000m  699.9949m   50.5554f 
  191.50000m  699.9949m   50.5554f 
  191.60000m  699.9949m   50.5554f 
  191.70000m  699.9949m   50.5554f 
  191.80000m  699.9949m   50.5554f 
  191.90000m  699.9949m   50.5554f 
  192.00000m  699.9949m   50.5554f 
  192.10000m  699.9949m   50.5554f 
  192.20000m  699.9949m   50.5554f 
  192.30000m  699.9949m   50.5554f 
  192.40000m  699.9949m   50.5554f 
  192.50000m  699.9949m   50.5554f 
  192.60000m  699.9949m   50.5554f 
  192.70000m  699.9949m   50.5554f 
  192.80000m  699.9949m   50.5554f 
  192.90000m  699.9949m   50.5554f 
  193.00000m  699.9949m   50.5554f 
  193.10000m  699.9949m   50.5554f 
  193.20000m  699.9949m   50.5554f 
  193.30000m  699.9949m   50.5554f 
  193.40000m  699.9949m   50.5554f 
  193.50000m  699.9949m   50.5554f 
  193.60000m  699.9949m   50.5554f 
  193.70000m  699.9949m   50.5554f 
  193.80000m  699.9949m   50.5554f 
  193.90000m  699.9949m   50.5554f 
  194.00000m  699.9949m   50.5554f 
  194.10000m  699.9949m   50.5554f 
  194.20000m  699.9949m   50.5554f 
  194.30000m  699.9949m   50.5554f 
  194.40000m  699.9949m   50.5554f 
  194.50000m  699.9949m   50.5554f 
  194.60000m  699.9949m   50.5554f 
  194.70000m  699.9949m   50.5554f 
  194.80000m  699.9949m   50.5554f 
  194.90000m  699.9949m   50.5554f 
  195.00000m  699.9950m   50.5554f 
  195.10000m  699.9950m   50.5554f 
  195.20000m  699.9950m   50.5554f 
  195.30000m  699.9950m   50.5554f 
  195.40000m  699.9950m   50.5554f 
  195.50000m  699.9950m   50.5553f 
  195.60000m  699.9950m   50.5553f 
  195.70000m  699.9950m   50.5553f 
  195.80000m  699.9950m   50.5553f 
  195.90000m  699.9950m   50.5553f 
  196.00000m  699.9950m   50.5553f 
  196.10000m  699.9950m   50.5553f 
  196.20000m  699.9950m   50.5553f 
  196.30000m  699.9950m   50.5553f 
  196.40000m  699.9950m   50.5553f 
  196.50000m  699.9950m   50.5553f 
  196.60000m  699.9950m   50.5553f 
  196.70000m  699.9950m   50.5553f 
  196.80000m  699.9950m   50.5553f 
  196.90000m  699.9950m   50.5553f 
  197.00000m  699.9950m   50.5553f 
  197.10000m  699.9950m   50.5553f 
  197.20000m  699.9950m   50.5553f 
  197.30000m  699.9950m   50.5553f 
  197.40000m  699.9950m   50.5553f 
  197.50000m  699.9950m   50.5553f 
  197.60000m  699.9950m   50.5553f 
  197.70000m  699.9950m   50.5553f 
  197.80000m  699.9950m   50.5553f 
  197.90000m  699.9950m   50.5553f 
  198.00000m  699.9950m   50.5553f 
  198.10000m  699.9950m   50.5553f 
  198.20000m  699.9950m   50.5553f 
  198.30000m  699.9950m   50.5553f 
  198.40000m  699.9950m   50.5553f 
  198.50000m  699.9950m   50.5553f 
  198.60000m  699.9950m   50.5553f 
  198.70000m  699.9950m   50.5553f 
  198.80000m  699.9950m   50.5553f 
  198.90000m  699.9950m   50.5553f 
  199.00000m  699.9950m   50.5553f 
  199.10000m  699.9950m   50.5553f 
  199.20000m  699.9950m   50.5553f 
  199.30000m  699.9950m   50.5553f 
  199.40000m  699.9950m   50.5553f 
  199.50000m  699.9950m   50.5553f 
  199.60000m  699.9950m   50.5553f 
  199.70000m  699.9950m   50.5553f 
  199.80000m  699.9950m   50.5553f 
  199.90000m  699.9950m   50.5553f 
  200.00000m  699.9950m   50.5553f 
  200.10000m  699.9950m   50.5553f 
  200.20000m  699.9950m   50.5553f 
  200.30000m  699.9950m   50.5553f 
  200.40000m  699.9950m   50.5553f 
  200.50000m  699.9950m   50.5553f 
  200.60000m  699.9950m   50.5553f 
  200.70000m  699.9950m   50.5553f 
  200.80000m  699.9950m   50.5553f 
  200.90000m  699.9950m   50.5553f 
  201.00000m  699.9950m   50.5553f 
  201.10000m  699.9950m   50.5553f 
  201.20000m  699.9950m   50.5553f 
  201.30000m  699.9950m   50.5553f 
  201.40000m  699.9950m   50.5553f 
  201.50000m  699.9950m   50.5553f 
  201.60000m  699.9950m   50.5553f 
  201.70000m  699.9950m   50.5553f 
  201.80000m  699.9950m   50.5553f 
  201.90000m  699.9950m   50.5553f 
  202.00000m  699.9950m   50.5553f 
  202.10000m  699.9950m   50.5553f 
  202.20000m  699.9950m   50.5553f 
  202.30000m  699.9950m   50.5553f 
  202.40000m  699.9950m   50.5552f 
  202.50000m  699.9950m   50.5552f 
  202.60000m  699.9950m   50.5552f 
  202.70000m  699.9950m   50.5552f 
  202.80000m  699.9950m   50.5552f 
  202.90000m  699.9950m   50.5552f 
  203.00000m  699.9950m   50.5552f 
  203.10000m  699.9950m   50.5552f 
  203.20000m  699.9950m   50.5552f 
  203.30000m  699.9950m   50.5552f 
  203.40000m  699.9950m   50.5552f 
  203.50000m  699.9950m   50.5552f 
  203.60000m  699.9950m   50.5552f 
  203.70000m  699.9950m   50.5552f 
  203.80000m  699.9950m   50.5552f 
  203.90000m  699.9950m   50.5552f 
  204.00000m  699.9950m   50.5552f 
  204.10000m  699.9950m   50.5552f 
  204.20000m  699.9950m   50.5552f 
  204.30000m  699.9950m   50.5552f 
  204.40000m  699.9950m   50.5552f 
  204.50000m  699.9950m   50.5552f 
  204.60000m  699.9950m   50.5552f 
  204.70000m  699.9950m   50.5552f 
  204.80000m  699.9950m   50.5552f 
  204.90000m  699.9950m   50.5552f 
  205.00000m  699.9951m   50.5552f 
  205.10000m  699.9951m   50.5552f 
  205.20000m  699.9951m   50.5552f 
  205.30000m  699.9951m   50.5552f 
  205.40000m  699.9951m   50.5552f 
  205.50000m  699.9951m   50.5552f 
  205.60000m  699.9951m   50.5552f 
  205.70000m  699.9951m   50.5552f 
  205.80000m  699.9951m   50.5552f 
  205.90000m  699.9951m   50.5552f 
  206.00000m  699.9951m   50.5552f 
  206.10000m  699.9951m   50.5552f 
  206.20000m  699.9951m   50.5552f 
  206.30000m  699.9951m   50.5552f 
  206.40000m  699.9951m   50.5552f 
  206.50000m  699.9951m   50.5552f 
  206.60000m  699.9951m   50.5552f 
  206.70000m  699.9951m   50.5552f 
  206.80000m  699.9951m   50.5552f 
  206.90000m  699.9951m   50.5552f 
  207.00000m  699.9951m   50.5552f 
  207.10000m  699.9951m   50.5552f 
  207.20000m  699.9951m   50.5552f 
  207.30000m  699.9951m   50.5552f 
  207.40000m  699.9951m   50.5552f 
  207.50000m  699.9951m   50.5552f 
  207.60000m  699.9951m   50.5552f 
  207.70000m  699.9951m   50.5552f 
  207.80000m  699.9951m   50.5552f 
  207.90000m  699.9951m   50.5552f 
  208.00000m  699.9951m   50.5552f 
  208.10000m  699.9951m   50.5552f 
  208.20000m  699.9951m   50.5552f 
  208.30000m  699.9951m   50.5552f 
  208.40000m  699.9951m   50.5552f 
  208.50000m  699.9951m   50.5552f 
  208.60000m  699.9951m   50.5552f 
  208.70000m  699.9951m   50.5552f 
  208.80000m  699.9951m   50.5552f 
  208.90000m  699.9951m   50.5552f 
  209.00000m  699.9951m   50.5552f 
  209.10000m  699.9951m   50.5552f 
  209.20000m  699.9951m   50.5552f 
  209.30000m  699.9951m   50.5551f 
  209.40000m  699.9951m   50.5551f 
  209.50000m  699.9951m   50.5551f 
  209.60000m  699.9951m   50.5551f 
  209.70000m  699.9951m   50.5551f 
  209.80000m  699.9951m   50.5551f 
  209.90000m  699.9951m   50.5551f 
  210.00000m  699.9951m   50.5551f 
  210.10000m  699.9951m   50.5551f 
  210.20000m  699.9951m   50.5551f 
  210.30000m  699.9951m   50.5551f 
  210.40000m  699.9951m   50.5551f 
  210.50000m  699.9951m   50.5551f 
  210.60000m  699.9951m   50.5551f 
  210.70000m  699.9951m   50.5551f 
  210.80000m  699.9951m   50.5551f 
  210.90000m  699.9951m   50.5551f 
  211.00000m  699.9951m   50.5551f 
  211.10000m  699.9951m   50.5551f 
  211.20000m  699.9951m   50.5551f 
  211.30000m  699.9951m   50.5551f 
  211.40000m  699.9951m   50.5551f 
  211.50000m  699.9951m   50.5551f 
  211.60000m  699.9951m   50.5551f 
  211.70000m  699.9951m   50.5551f 
  211.80000m  699.9951m   50.5551f 
  211.90000m  699.9951m   50.5551f 
  212.00000m  699.9951m   50.5551f 
  212.10000m  699.9951m   50.5551f 
  212.20000m  699.9951m   50.5551f 
  212.30000m  699.9951m   50.5551f 
  212.40000m  699.9951m   50.5551f 
  212.50000m  699.9951m   50.5551f 
  212.60000m  699.9951m   50.5551f 
  212.70000m  699.9951m   50.5551f 
  212.80000m  699.9951m   50.5551f 
  212.90000m  699.9951m   50.5551f 
  213.00000m  699.9951m   50.5551f 
  213.10000m  699.9951m   50.5551f 
  213.20000m  699.9951m   50.5551f 
  213.30000m  699.9951m   50.5551f 
  213.40000m  699.9951m   50.5551f 
  213.50000m  699.9951m   50.5551f 
  213.60000m  699.9951m   50.5551f 
  213.70000m  699.9951m   50.5551f 
  213.80000m  699.9951m   50.5551f 
  213.90000m  699.9951m   50.5551f 
  214.00000m  699.9951m   50.5551f 
  214.10000m  699.9951m   50.5551f 
  214.20000m  699.9951m   50.5551f 
  214.30000m  699.9951m   50.5551f 
  214.40000m  699.9951m   50.5551f 
  214.50000m  699.9951m   50.5551f 
  214.60000m  699.9951m   50.5551f 
  214.70000m  699.9951m   50.5551f 
  214.80000m  699.9951m   50.5551f 
  214.90000m  699.9951m   50.5551f 
  215.00000m  699.9952m   50.5551f 
  215.10000m  699.9952m   50.5551f 
  215.20000m  699.9952m   50.5551f 
  215.30000m  699.9952m   50.5551f 
  215.40000m  699.9952m   50.5551f 
  215.50000m  699.9952m   50.5551f 
  215.60000m  699.9952m   50.5551f 
  215.70000m  699.9952m   50.5551f 
  215.80000m  699.9952m   50.5551f 
  215.90000m  699.9952m   50.5551f 
  216.00000m  699.9952m   50.5551f 
  216.10000m  699.9952m   50.5550f 
  216.20000m  699.9952m   50.5550f 
  216.30000m  699.9952m   50.5550f 
  216.40000m  699.9952m   50.5550f 
  216.50000m  699.9952m   50.5550f 
  216.60000m  699.9952m   50.5550f 
  216.70000m  699.9952m   50.5550f 
  216.80000m  699.9952m   50.5550f 
  216.90000m  699.9952m   50.5550f 
  217.00000m  699.9952m   50.5550f 
  217.10000m  699.9952m   50.5550f 
  217.20000m  699.9952m   50.5550f 
  217.30000m  699.9952m   50.5550f 
  217.40000m  699.9952m   50.5550f 
  217.50000m  699.9952m   50.5550f 
  217.60000m  699.9952m   50.5550f 
  217.70000m  699.9952m   50.5550f 
  217.80000m  699.9952m   50.5550f 
  217.90000m  699.9952m   50.5550f 
  218.00000m  699.9952m   50.5550f 
  218.10000m  699.9952m   50.5550f 
[...]
  657.70000m  699.9996m   50.5486f 
  657.80000m  699.9996m   50.5486f 
  657.90000m  699.9996m   50.5486f 
  658.00000m  699.9996m   50.5486f 
  658.10000m  699.9996m   50.5486f 
  658.20000m  699.9996m   50.5486f 
  658.30000m  699.9996m   50.5486f 
  658.40000m  699.9996m   50.5486f 
  658.50000m  699.9996m   50.5486f 
  658.60000m  699.9996m   50.5486f 
  658.70000m  699.9996m   50.5486f 
  658.80000m  699.9996m   50.5486f 
  658.90000m  699.9996m   50.5486f 
  659.00000m  699.9996m   50.5486f 
  659.10000m  699.9996m   50.5486f 
  659.20000m  699.9996m   50.5486f 
  659.30000m  699.9996m   50.5486f 
  659.40000m  699.9996m   50.5486f 
  659.50000m  699.9996m   50.5486f 
  659.60000m  699.9996m   50.5486f 
  659.70000m  699.9996m   50.5486f 
  659.80000m  699.9996m   50.5486f 
  659.90000m  699.9996m   50.5486f 
  660.00000m  699.9996m   50.5486f 
  660.10000m  699.9996m   50.5486f 
  660.20000m  699.9996m   50.5486f 
  660.30000m  699.9996m   50.5486f 
  660.40000m  699.9996m   50.5486f 
  660.50000m  699.9996m   50.5486f 
  660.60000m  699.9996m   50.5486f 
  660.70000m  699.9996m   50.5486f 
  660.80000m  699.9996m   50.5486f 
  660.90000m  699.9996m   50.5486f 
  661.00000m  699.9996m   50.5486f 
  661.10000m  699.9996m   50.5486f 
  661.20000m  699.9996m   50.5486f 
  661.30000m  699.9996m   50.5486f 
  661.40000m  699.9996m   50.5486f 
  661.50000m  699.9996m   50.5486f 
  661.60000m  699.9996m   50.5486f 
  661.70000m  699.9996m   50.5486f 
  661.80000m  699.9996m   50.5486f 
  661.90000m  699.9996m   50.5486f 
  662.00000m  699.9996m   50.5486f 
  662.10000m  699.9996m   50.5486f 
  662.20000m  699.9996m   50.5486f 
  662.30000m  699.9996m   50.5486f 
  662.40000m  699.9996m   50.5486f 
  662.50000m  699.9996m   50.5486f 
  662.60000m  699.9996m   50.5486f 
  662.70000m  699.9996m   50.5486f 
  662.80000m  699.9996m   50.5486f 
  662.90000m  699.9996m   50.5486f 
  663.00000m  699.9996m   50.5486f 
  663.10000m  699.9996m   50.5486f 
  663.20000m  699.9996m   50.5485f 
  663.30000m  699.9996m   50.5485f 
  663.40000m  699.9996m   50.5485f 
  663.50000m  699.9996m   50.5485f 
  663.60000m  699.9996m   50.5485f 
  663.70000m  699.9996m   50.5485f 
  663.80000m  699.9996m   50.5485f 
  663.90000m  699.9996m   50.5485f 
  664.00000m  699.9996m   50.5485f 
  664.10000m  699.9996m   50.5485f 
  664.20000m  699.9996m   50.5485f 
  664.30000m  699.9996m   50.5485f 
  664.40000m  699.9996m   50.5485f 
  664.50000m  699.9996m   50.5485f 
  664.60000m  699.9996m   50.5485f 
  664.70000m  699.9996m   50.5485f 
  664.80000m  699.9996m   50.5485f 
  664.90000m  699.9996m   50.5485f 
  665.00000m  699.9997m   50.5485f 
  665.10000m  699.9997m   50.5485f 
  665.20000m  699.9997m   50.5485f 
  665.30000m  699.9997m   50.5485f 
  665.40000m  699.9997m   50.5485f 
  665.50000m  699.9997m   50.5485f 
  665.60000m  699.9997m   50.5485f 
  665.70000m  699.9997m   50.5485f 
  665.80000m  699.9997m   50.5485f 
  665.90000m  699.9997m   50.5485f 
  666.00000m  699.9997m   50.5485f 
  666.10000m  699.9997m   50.5485f 
  666.20000m  699.9997m   50.5485f 
  666.30000m  699.9997m   50.5485f 
  666.40000m  699.9997m   50.5485f 
  666.50000m  699.9997m   50.5485f 
  666.60000m  699.9997m   50.5485f 
  666.70000m  699.9997m   50.5485f 
  666.80000m  699.9997m   50.5485f 
  666.90000m  699.9997m   50.5485f 
  667.00000m  699.9997m   50.5485f 
  667.10000m  699.9997m   50.5485f 
  667.20000m  699.9997m   50.5485f 
  667.30000m  699.9997m   50.5485f 
  667.40000m  699.9997m   50.5485f 
  667.50000m  699.9997m   50.5485f 
  667.60000m  699.9997m   50.5485f 
  667.70000m  699.9997m   50.5485f 
  667.80000m  699.9997m   50.5485f 
  667.90000m  699.9997m   50.5485f 
  668.00000m  699.9997m   50.5485f 
  668.10000m  699.9997m   50.5485f 
  668.20000m  699.9997m   50.5485f 
  668.30000m  699.9997m   50.5485f 
  668.40000m  699.9997m   50.5485f 
  668.50000m  699.9997m   50.5485f 
  668.60000m  699.9997m   50.5485f 
  668.70000m  699.9997m   50.5485f 
  668.80000m  699.9997m   50.5485f 
  668.90000m  699.9997m   50.5485f 
  669.00000m  699.9997m   50.5485f 
  669.10000m  699.9997m   50.5485f 
  669.20000m  699.9997m   50.5485f 
  669.30000m  699.9997m   50.5485f 
  669.40000m  699.9997m   50.5485f 
  669.50000m  699.9997m   50.5485f 
  669.60000m  699.9997m   50.5485f 
  669.70000m  699.9997m   50.5485f 
  669.80000m  699.9997m   50.5485f 
  669.90000m  699.9997m   50.5485f 
  670.00000m  699.9997m   50.5485f 
  670.10000m  699.9997m   50.5484f 
  670.20000m  699.9997m   50.5484f 
  670.30000m  699.9997m   50.5484f 
  670.40000m  699.9997m   50.5484f 
  670.50000m  699.9997m   50.5484f 
  670.60000m  699.9997m   50.5484f 
  670.70000m  699.9997m   50.5484f 
  670.80000m  699.9997m   50.5484f 
  670.90000m  699.9997m   50.5484f 
  671.00000m  699.9997m   50.5484f 
  671.10000m  699.9997m   50.5484f 
  671.20000m  699.9997m   50.5484f 
  671.30000m  699.9997m   50.5484f 
  671.40000m  699.9997m   50.5484f 
  671.50000m  699.9997m   50.5484f 
  671.60000m  699.9997m   50.5484f 
  671.70000m  699.9997m   50.5484f 
  671.80000m  699.9997m   50.5484f 
  671.90000m  699.9997m   50.5484f 
  672.00000m  699.9997m   50.5484f 
  672.10000m  699.9997m   50.5484f 
  672.20000m  699.9997m   50.5484f 
  672.30000m  699.9997m   50.5484f 
  672.40000m  699.9997m   50.5484f 
  672.50000m  699.9997m   50.5484f 
  672.60000m  699.9997m   50.5484f 
  672.70000m  699.9997m   50.5484f 
  672.80000m  699.9997m   50.5484f 
  672.90000m  699.9997m   50.5484f 
  673.00000m  699.9997m   50.5484f 
  673.10000m  699.9997m   50.5484f 
  673.20000m  699.9997m   50.5484f 
  673.30000m  699.9997m   50.5484f 
  673.40000m  699.9997m   50.5484f 
  673.50000m  699.9997m   50.5484f 
  673.60000m  699.9997m   50.5484f 
  673.70000m  699.9997m   50.5484f 
  673.80000m  699.9997m   50.5484f 
  673.90000m  699.9997m   50.5484f 
  674.00000m  699.9997m   50.5484f 
  674.10000m  699.9997m   50.5484f 
  674.20000m  699.9997m   50.5484f 
  674.30000m  699.9997m   50.5484f 
  674.40000m  699.9997m   50.5484f 
  674.50000m  699.9997m   50.5484f 
  674.60000m  699.9997m   50.5484f 
  674.70000m  699.9997m   50.5484f 
  674.80000m  699.9997m   50.5484f 
  674.90000m  699.9997m   50.5484f 
  675.00000m  699.9998m   50.5484f 
  675.10000m  699.9998m   50.5484f 
  675.20000m  699.9998m   50.5484f 
  675.30000m  699.9998m   50.5484f 
  675.40000m  699.9998m   50.5484f 
  675.50000m  699.9998m   50.5484f 
  675.60000m  699.9998m   50.5484f 
  675.70000m  699.9998m   50.5484f 
  675.80000m  699.9998m   50.5484f 
  675.90000m  699.9998m   50.5484f 
  676.00000m  699.9998m   50.5484f 
  676.10000m  699.9998m   50.5484f 
  676.20000m  699.9998m   50.5484f 
  676.30000m  699.9998m   50.5484f 
  676.40000m  699.9998m   50.5484f 
  676.50000m  699.9998m   50.5484f 
  676.60000m  699.9998m   50.5484f 
  676.70000m  699.9998m   50.5484f 
  676.80000m  699.9998m   50.5484f 
  676.90000m  699.9998m   50.5484f 
  677.00000m  699.9998m   50.5483f 
  677.10000m  699.9998m   50.5483f 
  677.20000m  699.9998m   50.5483f 
  677.30000m  699.9998m   50.5483f 
  677.40000m  699.9998m   50.5483f 
  677.50000m  699.9998m   50.5483f 
  677.60000m  699.9998m   50.5483f 
  677.70000m  699.9998m   50.5483f 
  677.80000m  699.9998m   50.5483f 
  677.90000m  699.9998m   50.5483f 
  678.00000m  699.9998m   50.5483f 
  678.10000m  699.9998m   50.5483f 
  678.20000m  699.9998m   50.5483f 
  678.30000m  699.9998m   50.5483f 
  678.40000m  699.9998m   50.5483f 
  678.50000m  699.9998m   50.5483f 
  678.60000m  699.9998m   50.5483f 
  678.70000m  699.9998m   50.5483f 
  678.80000m  699.9998m   50.5483f 
  678.90000m  699.9998m   50.5483f 
  679.00000m  699.9998m   50.5483f 
  679.10000m  699.9998m   50.5483f 
  679.20000m  699.9998m   50.5483f 
  679.30000m  699.9998m   50.5483f 
  679.40000m  699.9998m   50.5483f 
  679.50000m  699.9998m   50.5483f 
  679.60000m  699.9998m   50.5483f 
  679.70000m  699.9998m   50.5483f 
  679.80000m  699.9998m   50.5483f 
  679.90000m  699.9998m   50.5483f 
  680.00000m  699.9998m   50.5483f 
  680.10000m  699.9998m   50.5483f 
  680.20000m  699.9998m   50.5483f 
  680.30000m  699.9998m   50.5483f 
  680.40000m  699.9998m   50.5483f 
  680.50000m  699.9998m   50.5483f 
  680.60000m  699.9998m   50.5483f 
  680.70000m  699.9998m   50.5483f 
  680.80000m  699.9998m   50.5483f 
  680.90000m  699.9998m   50.5483f 
  681.00000m  699.9998m   50.5483f 
  681.10000m  699.9998m   50.5483f 
  681.20000m  699.9998m   50.5483f 
  681.30000m  699.9998m   50.5483f 
  681.40000m  699.9998m   50.5483f 
  681.50000m  699.9998m   50.5483f 
  681.60000m  699.9998m   50.5483f 
  681.70000m  699.9998m   50.5483f 
  681.80000m  699.9998m   50.5483f 
  681.90000m  699.9998m   50.5483f 
  682.00000m  699.9998m   50.5483f 
  682.10000m  699.9998m   50.5483f 
  682.20000m  699.9998m   50.5483f 
  682.30000m  699.9998m   50.5483f 
  682.40000m  699.9998m   50.5483f 
  682.50000m  699.9998m   50.5483f 
  682.60000m  699.9998m   50.5483f 
  682.70000m  699.9998m   50.5483f 
  682.80000m  699.9998m   50.5483f 
  682.90000m  699.9998m   50.5483f 
  683.00000m  699.9998m   50.5483f 
  683.10000m  699.9998m   50.5483f 
  683.20000m  699.9998m   50.5483f 
  683.30000m  699.9998m   50.5483f 
  683.40000m  699.9998m   50.5483f 
  683.50000m  699.9998m   50.5483f 
  683.60000m  699.9998m   50.5483f 
  683.70000m  699.9998m   50.5483f 
  683.80000m  699.9998m   50.5483f 
  683.90000m  699.9998m   50.5482f 
  684.00000m  699.9998m   50.5482f 
  684.10000m  699.9998m   50.5482f 
  684.20000m  699.9998m   50.5482f 
  684.30000m  699.9998m   50.5482f 
  684.40000m  699.9998m   50.5482f 
  684.50000m  699.9998m   50.5482f 
  684.60000m  699.9998m   50.5482f 
  684.70000m  699.9998m   50.5482f 
  684.80000m  699.9998m   50.5482f 
  684.90000m  699.9998m   50.5482f 
  685.00000m  699.9999m   50.5482f 
  685.10000m  699.9999m   50.5482f 
  685.20000m  699.9999m   50.5482f 
  685.30000m  699.9999m   50.5482f 
  685.40000m  699.9999m   50.5482f 
  685.50000m  699.9999m   50.5482f 
  685.60000m  699.9999m   50.5482f 
  685.70000m  699.9999m   50.5482f 
  685.80000m  699.9999m   50.5482f 
  685.90000m  699.9999m   50.5482f 
  686.00000m  699.9999m   50.5482f 
  686.10000m  699.9999m   50.5482f 
  686.20000m  699.9999m   50.5482f 
  686.30000m  699.9999m   50.5482f 
  686.40000m  699.9999m   50.5482f 
  686.50000m  699.9999m   50.5482f 
  686.60000m  699.9999m   50.5482f 
  686.70000m  699.9999m   50.5482f 
  686.80000m  699.9999m   50.5482f 
  686.90000m  699.9999m   50.5482f 
  687.00000m  699.9999m   50.5482f 
  687.10000m  699.9999m   50.5482f 
  687.20000m  699.9999m   50.5482f 
  687.30000m  699.9999m   50.5482f 
  687.40000m  699.9999m   50.5482f 
  687.50000m  699.9999m   50.5482f 
  687.60000m  699.9999m   50.5482f 
  687.70000m  699.9999m   50.5482f 
  687.80000m  699.9999m   50.5482f 
  687.90000m  699.9999m   50.5482f 
  688.00000m  699.9999m   50.5482f 
  688.10000m  699.9999m   50.5482f 
  688.20000m  699.9999m   50.5482f 
  688.30000m  699.9999m   50.5482f 
  688.40000m  699.9999m   50.5482f 
  688.50000m  699.9999m   50.5482f 
  688.60000m  699.9999m   50.5482f 
  688.70000m  699.9999m   50.5482f 
  688.80000m  699.9999m   50.5482f 
  688.90000m  699.9999m   50.5482f 
  689.00000m  699.9999m   50.5482f 
  689.10000m  699.9999m   50.5482f 
  689.20000m  699.9999m   50.5482f 
  689.30000m  699.9999m   50.5482f 
  689.40000m  699.9999m   50.5482f 
  689.50000m  699.9999m   50.5482f 
  689.60000m  699.9999m   50.5482f 
  689.70000m  699.9999m   50.5482f 
  689.80000m  699.9999m   50.5482f 
  689.90000m  699.9999m   50.5482f 
  690.00000m  699.9999m   50.5482f 
  690.10000m  699.9999m   50.5482f 
  690.20000m  699.9999m   50.5482f 
  690.30000m  699.9999m   50.5482f 
  690.40000m  699.9999m   50.5482f 
  690.50000m  699.9999m   50.5482f 
  690.60000m  699.9999m   50.5482f 
  690.70000m  699.9999m   50.5481f 
  690.80000m  699.9999m   50.5481f 
  690.90000m  699.9999m   50.5481f 
  691.00000m  699.9999m   50.5481f 
  691.10000m  699.9999m   50.5481f 
  691.20000m  699.9999m   50.5481f 
  691.30000m  699.9999m   50.5481f 
  691.40000m  699.9999m   50.5481f 
  691.50000m  699.9999m   50.5481f 
  691.60000m  699.9999m   50.5481f 
  691.70000m  699.9999m   50.5481f 
  691.80000m  699.9999m   50.5481f 
  691.90000m  699.9999m   50.5481f 
  692.00000m  699.9999m   50.5481f 
  692.10000m  699.9999m   50.5481f 
  692.20000m  699.9999m   50.5481f 
  692.30000m  699.9999m   50.5481f 
  692.40000m  699.9999m   50.5481f 
  692.50000m  699.9999m   50.5481f 
  692.60000m  699.9999m   50.5481f 
  692.70000m  699.9999m   50.5481f 
  692.80000m  699.9999m   50.5481f 
  692.90000m  699.9999m   50.5481f 
  693.00000m  699.9999m   50.5481f 
  693.10000m  699.9999m   50.5481f 
  693.20000m  699.9999m   50.5481f 
  693.30000m  699.9999m   50.5481f 
  693.40000m  699.9999m   50.5481f 
  693.50000m  699.9999m   50.5481f 
  693.60000m  699.9999m   50.5481f 
  693.70000m  699.9999m   50.5481f 
  693.80000m  699.9999m   50.5481f 
  693.90000m  699.9999m   50.5481f 
  694.00000m  699.9999m   50.5481f 
  694.10000m  699.9999m   50.5481f 
  694.20000m  699.9999m   50.5481f 
  694.30000m  699.9999m   50.5481f 
  694.40000m  699.9999m   50.5481f 
  694.50000m  699.9999m   50.5481f 
  694.60000m  699.9999m   50.5481f 
  694.70000m  699.9999m   50.5481f 
  694.80000m  699.9999m   50.5481f 
  694.90000m  699.9999m   50.5481f 
  695.00000m  700.0000m   50.5481f 
  695.10000m  700.0000m   50.5481f 
  695.20000m  700.0000m   50.5481f 
  695.30000m  700.0000m   50.5481f 
  695.40000m  700.0000m   50.5481f 
  695.50000m  700.0000m   50.5481f 
  695.60000m  700.0000m   50.5481f 
  695.70000m  700.0000m   50.5481f 
  695.80000m  700.0000m   50.5481f 
  695.90000m  700.0000m   50.5481f 
  696.00000m  700.0000m   50.5481f 
  696.10000m  700.0000m   50.5481f 
  696.20000m  700.0000m   50.5481f 
  696.30000m  700.0000m   50.5481f 
  696.40000m  700.0000m   50.5481f 
  696.50000m  700.0000m   50.5481f 
  696.60000m  700.0000m   50.5481f 
  696.70000m  700.0000m   50.5481f 
  696.80000m  700.0000m   50.5481f 
  696.90000m  700.0000m   50.5481f 
  697.00000m  700.0000m   50.5481f 
  697.10000m  700.0000m   50.5481f 
  697.20000m  700.0000m   50.5481f 
  697.30000m  700.0000m   50.5481f 
  697.40000m  700.0000m   50.5481f 
  697.50000m  700.0000m   50.5481f 
  697.60000m  700.0000m   50.5480f 
  697.70000m  700.0000m   50.5480f 
  697.80000m  700.0000m   50.5480f 
  697.90000m  700.0000m   50.5480f 
  698.00000m  700.0000m   50.5480f 
  698.10000m  700.0000m   50.5480f 
  698.20000m  700.0000m   50.5480f 
  698.30000m  700.0000m   50.5480f 
  698.40000m  700.0000m   50.5480f 
  698.50000m  700.0000m   50.5480f 
  698.60000m  700.0000m   50.5480f 
  698.70000m  700.0000m   50.5480f 
  698.80000m  700.0000m   50.5480f 
  698.90000m  700.0000m   50.5480f 
  699.00000m  700.0000m   50.5480f 
  699.10000m  700.0000m   50.5480f 
  699.20000m  700.0000m   50.5480f 
  699.30000m  700.0000m   50.5480f 
  699.40000m  700.0000m   50.5480f 
  699.50000m  700.0000m   50.5480f 
  699.60000m  700.0000m   50.5480f 
  699.70000m  700.0000m   50.5480f 
  699.80000m  700.0000m   50.5480f 
  699.90000m  700.0000m   50.5480f 
  700.00000m  700.0000m   50.5480f 
y
1****** HSPICE -- Q-2020.03-SP2-2 linux64 (Nov  1 2020) ******                  
 ******  
 .title ex1_1

 ****** operating point information tnom=  25.000 temp=  25.000 ******
 ****** operating point status is all       simulation time is     0.     
    node    =voltage      node    =voltage      node    =voltage

 +0:bl      = 700.0000m 0:blb     = 700.0000m 0:q       = 699.9930m
 +0:qb      =  50.5582f 0:test    =   0.      0:vdd     = 700.0000m
 +0:wl      =   0.     


 **** voltage sources

 subckt                                   
 element  0:vtest    0:vvdd     0:vwl     
  volts      0.       700.0000m    0.     
  current  699.9930u -786.6974p  376.8363f
  power      0.       550.6882p    0.     

     total voltage source power dissipation=  550.6882p       watts



 **** resistors

 subckt             
 element  0:rtest   
  r value    1.0000k
  v drop  -699.9930m
  current -699.9930u
  power    489.9902u



 **** mosfets


 subckt                                                                    
 element  0:mp_pu1   0:mp_pu2   0:mn_pd1   0:mn_pd2   0:mn_ax1   0:mn_ax2  
 model    0:pmos_sra 0:pmos_sra 0:nmos_sra 0:nmos_sra 0:nmos_sra 0:nmos_sra
 region   Linear     Subth      Cutoff     Linear     Cutoff     Cutoff    
  id      -782.8161p   -3.8135p  678.4857f    7.6661a  2.273e-19  678.4893f
  ibs        0.         0.         0.         0.         0.         0.     
  ibd        0.         0.         0.         0.         0.         0.     
  vgs     -700.0000m   -6.9999u   50.5582f  699.9930m -699.9930m  -50.5582f
  vds       -6.9999u -700.0000m  699.9930m   50.5582f    6.9999u  700.0000m
  vbs        0.         0.         0.         0.      -699.9930m  -50.5582f
  vth     -339.1310m -328.3087m  406.6380m  410.1164m  410.1164m  406.6380m
  vdsat   -365.6435m  -72.7965m   70.6690m  280.7490m   70.6690m   70.6690m
  vod     -360.8690m  328.3017m -406.6380m  289.8766m   -1.1101  -406.6380m
  beta       1.6413m    1.6413m    2.1736m    2.1736m    2.1736m    2.1736m
  gam eff    0.         0.         0.         0.         0.         0.     
  gm         1.4668n  147.4771p   25.5579p   11.8986a  2.981e-25   25.5580p
  gds      111.8314u    3.6602p  516.9684f  151.6677u   32.4261f  516.9705f
  gmb        1.4477f   42.6209a    7.3861a  1.730e-23  1.834e-24    7.3861a
  cdtot     25.3297a   10.2225a   10.2225a   24.7314a   10.2225a   10.2225a
  cgtot     65.7671a   20.4452a   20.4450a   63.9717a   20.4450a   20.4450a
  cstot     25.3300a   10.2226a   10.2225a   24.7314a   10.2225a   10.2225a
  cbtot      0.         0.         0.         0.         0.         0.     
  cgs       32.8838a   10.2227a   10.2225a   31.9858a   10.2225a   10.2225a
  cgd       32.8833a   10.2225a   10.2225a   31.9858a   10.2225a   10.2225a




          ***** job concluded
 ******  
 .title ex1_1

 ****** job statistics summary tnom=  25.000 temp=  25.000 ******
  
 ******  Machine Information  ******
 CPU:
 model name	: AMD EPYC 7713 64-Core Processor
 cpu MHz	: 2000.000
  
 OS:
 Linux version 3.10.0-1160.88.1.el7.x86_64 (mockbuild@kbuilder.bsys.centos.org) (gcc version 4.8.5 20150623 (Red Hat 4.8.5-44) (GCC) ) #1 SMP Tue Mar 7 15:41:52 UTC 2023


  ******  HSPICE Threads Information  ******

  Command Line Threads Count :     1
  Available CPU Count        :   256
  Actual Threads Count       :     1


  ******  Circuit Statistics  ******
  # nodes       =       8 # elements   =      12
  # resistors   =       1 # capacitors =       2 # inductors   =       0
  # mutual_inds =       0 # vccs       =       0 # vcvs        =       0
  # cccs        =       0 # ccvs       =       0 # volt_srcs   =       3
  # curr_srcs   =       0 # diodes     =       0 # bjts        =       0
  # jfets       =       0 # mosfets    =       6 # U elements  =       0
  # T elements  =       0 # W elements =       0 # B elements  =       0
  # S elements  =       0 # P elements =       0 # va device   =       0
  # vector_srcs =       0 # N elements =       0


  ******  Runtime Statistics (seconds)  ******

  analysis           time    # points   tot. iter  conv.iter
  op point           0.01           1           2
  dc sweep           0.58        7001       21002
  readin             0.02
  errchk             0.00
  setup              0.00
  output             0.00


           peak memory used        400.88 megabytes
           total cpu time            0.64 seconds
           total elapsed time        0.95 seconds
           job started at     23:56:43 03/18/2025
           job ended   at     23:56:44 03/18/2025
           job total runtime         0.95 seconds


 lic: Release hspice token(s) 
 lic: total license checkout elapse time:        0.30(s)
