 ****** HSPICE -- Q-2020.03-SP2-2 linux64 (Nov  1 2020) ******                  
  Copyright (c) 1986 - 2025 by Synopsys, Inc. All Rights Reserved.              
  This software and the associated documentation are proprietary
  to Synopsys, Inc. This software may only be used in accordance
  with the terms and conditions of a written license agreement with
  Synopsys, Inc. All other use, reproduction, or distribution of
  this software is strictly prohibited.
  Input File: ex1_1.sp                                                          
  Command line options: /RAID2/cad/synopsys/hspice/2020.03-sp2-2/hspice/linux64/hspice -i ex1_1.sp -o ex1_1.lis
  Start time: Tue Mar 18 20:30:09 2025
 lic:  
 lic: FLEXlm: SDK_12.6 
 lic: USER:   es25MCS042           HOSTNAME: ee28 
 lic: HOSTID: "d85ed3efc19a"       PID:      200698 
 lic: Using FLEXlm license file: 
 lic: 26585@lshc 
 lic: Checkout 1 hspice 
 lic: License/Maintenance for hspice will expire on 14-may-2025/2024.09 
 lic: 295(in_use)/1100(total) FLOATING license(s) on SERVER 26585@lshc 
 lic:   
  
      
             
 Warning:'Floating bulk' occurs 1 times
 Summary of floating bulk:
 -----------------------
 |Node      |Device    |
 |----------+----------|
 |x         |mp_pu1    |
 -----------------------
              
 *****************************************************************
 ******  option summary
 ******
 runlvl  = 3         bypass  = 2.0000    
 convergence problems in dc sweep curves at  0.21590    
  resimulating with dc convergence controls

 convergence problem in dc sweep curve at 0.21590    
 pseudo tran is tried

  *** pseudo tran succeeded *** 
 ******
 .title ex1_1

 ****** dc transfer curves tnom=  25.000 temp=  25.000 ******
x

 volt         voltage    voltage   
             q          qb         
    0.        369.3009m  369.3009m 
  100.00000u  369.4450m  369.1567m 
  200.00000u  369.5892m  369.0125m 
  300.00000u  369.7334m  368.8684m 
  400.00000u  369.8775m  368.7242m 
  500.00000u  370.0217m  368.5800m 
  600.00000u  370.1659m  368.4358m 
  700.00000u  370.3100m  368.2917m 
  800.00000u  370.4542m  368.1475m 
  900.00000u  370.5984m  368.0033m 
    1.00000m  370.7426m  367.8592m 
    1.10000m  370.8867m  367.7150m 
    1.20000m  371.0309m  367.5708m 
    1.30000m  371.1751m  367.4267m 
    1.40000m  371.3192m  367.2825m 
    1.50000m  371.4634m  367.1383m 
    1.60000m  371.6076m  366.9942m 
    1.70000m  371.7517m  366.8500m 
    1.80000m  371.8959m  366.7058m 
    1.90000m  372.0401m  366.5617m 
    2.00000m  372.1842m  366.4175m 
    2.10000m  372.3284m  366.2733m 
    2.20000m  372.4726m  366.1291m 
    2.30000m  372.6168m  365.9850m 
    2.40000m  372.7609m  365.8408m 
    2.50000m  372.9051m  365.6966m 
    2.60000m  373.0493m  365.5525m 
    2.70000m  373.1934m  365.4083m 
    2.80000m  373.3376m  365.2641m 
    2.90000m  373.4818m  365.1200m 
    3.00000m  373.6259m  364.9758m 
    3.10000m  373.7701m  364.8316m 
    3.20000m  373.9143m  364.6875m 
    3.30000m  374.0585m  364.5433m 
    3.40000m  374.2026m  364.3991m 
    3.50000m  374.3468m  364.2550m 
    3.60000m  374.4910m  364.1108m 
    3.70000m  374.6351m  363.9666m 
    3.80000m  374.7793m  363.8225m 
    3.90000m  374.9235m  363.6783m 
    4.00000m  375.0676m  363.5341m 
    4.10000m  375.2118m  363.3899m 
    4.20000m  375.3560m  363.2458m 
    4.30000m  375.5002m  363.1016m 
    4.40000m  375.6443m  362.9574m 
    4.50000m  375.7885m  362.8133m 
    4.60000m  375.9327m  362.6691m 
    4.70000m  376.0768m  362.5249m 
    4.80000m  376.2210m  362.3808m 
    4.90000m  376.3652m  362.2366m 
    5.00000m  376.5094m  362.0924m 
    5.10000m  376.6535m  361.9483m 
    5.20000m  376.7977m  361.8041m 
    5.30000m  376.9419m  361.6599m 
    5.40000m  377.0860m  361.5158m 
    5.50000m  377.2302m  361.3716m 
    5.60000m  377.3744m  361.2274m 
    5.70000m  377.5186m  361.0833m 
    5.80000m  377.6627m  360.9391m 
    5.90000m  377.8069m  360.7949m 
    6.00000m  377.9511m  360.6508m 
    6.10000m  378.0952m  360.5066m 
    6.20000m  378.2394m  360.3624m 
    6.30000m  378.3836m  360.2182m 
    6.40000m  378.5278m  360.0741m 
    6.50000m  378.6719m  359.9299m 
    6.60000m  378.8161m  359.7857m 
    6.70000m  378.9603m  359.6416m 
    6.80000m  379.1044m  359.4974m 
    6.90000m  379.2486m  359.3532m 
    7.00000m  379.3928m  359.2091m 
    7.10000m  379.5370m  359.0649m 
    7.20000m  379.6811m  358.9207m 
    7.30000m  379.8253m  358.7766m 
    7.40000m  379.9695m  358.6324m 
    7.50000m  380.1136m  358.4882m 
    7.60000m  380.2578m  358.3441m 
    7.70000m  380.4020m  358.1999m 
    7.80000m  380.5462m  358.0557m 
    7.90000m  380.6903m  357.9116m 
    8.00000m  380.8345m  357.7674m 
    8.10000m  380.9787m  357.6232m 
    8.20000m  381.1229m  357.4791m 
    8.30000m  381.2670m  357.3349m 
    8.40000m  381.4112m  357.1907m 
    8.50000m  381.5554m  357.0466m 
    8.60000m  381.6995m  356.9024m 
    8.70000m  381.8437m  356.7582m 
    8.80000m  381.9879m  356.6140m 
    8.90000m  382.1321m  356.4699m 
    9.00000m  382.2762m  356.3257m 
    9.10000m  382.4204m  356.1815m 
    9.20000m  382.5646m  356.0374m 
    9.30000m  382.7088m  355.8932m 
    9.40000m  382.8529m  355.7490m 
    9.50000m  382.9971m  355.6049m 
    9.60000m  383.1413m  355.4607m 
    9.70000m  383.2855m  355.3165m 
    9.80000m  383.4296m  355.1724m 
    9.90000m  383.5738m  355.0282m 
   10.00000m  383.7180m  354.8840m 
   10.10000m  383.8621m  354.7399m 
   10.20000m  384.0063m  354.5957m 
   10.30000m  384.1505m  354.4515m 
   10.40000m  384.2947m  354.3074m 
   10.50000m  384.4388m  354.1632m 
   10.60000m  384.5830m  354.0190m 
   10.70000m  384.7272m  353.8749m 
   10.80000m  384.8714m  353.7307m 
   10.90000m  385.0155m  353.5865m 
   11.00000m  385.1597m  353.4423m 
   11.10000m  385.3039m  353.2982m 
   11.20000m  385.4481m  353.1540m 
   11.30000m  385.5922m  353.0098m 
   11.40000m  385.7364m  352.8657m 
   11.50000m  385.8806m  352.7215m 
   11.60000m  386.0248m  352.5773m 
   11.70000m  386.1689m  352.4332m 
   11.80000m  386.3131m  352.2890m 
   11.90000m  386.4573m  352.1448m 
   12.00000m  386.6015m  352.0007m 
   12.10000m  386.7456m  351.8565m 
   12.20000m  386.8898m  351.7123m 
   12.30000m  387.0340m  351.5682m 
   12.40000m  387.1782m  351.4240m 
   12.50000m  387.3223m  351.2798m 
   12.60000m  387.4665m  351.1356m 
   12.70000m  387.6107m  350.9915m 
   12.80000m  387.7549m  350.8473m 
   12.90000m  387.8990m  350.7031m 
   13.00000m  388.0432m  350.5590m 
   13.10000m  388.1874m  350.4148m 
   13.20000m  388.3316m  350.2706m 
   13.30000m  388.4757m  350.1265m 
   13.40000m  388.6199m  349.9823m 
   13.50000m  388.7641m  349.8381m 
   13.60000m  388.9083m  349.6940m 
   13.70000m  389.0525m  349.5498m 
   13.80000m  389.1966m  349.4056m 
   13.90000m  389.3408m  349.2615m 
   14.00000m  389.4850m  349.1173m 
   14.10000m  389.6292m  348.9731m 
   14.20000m  389.7733m  348.8289m 
   14.30000m  389.9175m  348.6848m 
   14.40000m  390.0617m  348.5406m 
   14.50000m  390.2059m  348.3964m 
   14.60000m  390.3500m  348.2523m 
   14.70000m  390.4942m  348.1081m 
   14.80000m  390.6384m  347.9639m 
   14.90000m  390.7826m  347.8198m 
   15.00000m  390.9268m  347.6756m 
   15.10000m  391.0709m  347.5314m 
   15.20000m  391.2151m  347.3873m 
   15.30000m  391.3593m  347.2431m 
   15.40000m  391.5035m  347.0989m 
   15.50000m  391.6476m  346.9547m 
   15.60000m  391.7918m  346.8106m 
   15.70000m  391.9360m  346.6664m 
   15.80000m  392.0802m  346.5222m 
   15.90000m  392.2244m  346.3781m 
   16.00000m  392.3685m  346.2339m 
   16.10000m  392.5127m  346.0897m 
   16.20000m  392.6569m  345.9456m 
   16.30000m  392.8011m  345.8014m 
   16.40000m  392.9453m  345.6572m 
   16.50000m  393.0894m  345.5130m 
   16.60000m  393.2336m  345.3689m 
   16.70000m  393.3778m  345.2247m 
   16.80000m  393.5220m  345.0805m 
   16.90000m  393.6661m  344.9364m 
   17.00000m  393.8103m  344.7922m 
   17.10000m  393.9545m  344.6480m 
   17.20000m  394.0987m  344.5039m 
   17.30000m  394.2429m  344.3597m 
   17.40000m  394.3870m  344.2155m 
   17.50000m  394.5312m  344.0713m 
   17.60000m  394.6754m  343.9272m 
   17.70000m  394.8196m  343.7830m 
   17.80000m  394.9638m  343.6388m 
   17.90000m  395.1079m  343.4947m 
   18.00000m  395.2521m  343.3505m 
   18.10000m  395.3963m  343.2063m 
   18.20000m  395.5405m  343.0621m 
   18.30000m  395.6847m  342.9180m 
   18.40000m  395.8289m  342.7738m 
   18.50000m  395.9730m  342.6296m 
   18.60000m  396.1172m  342.4855m 
   18.70000m  396.2614m  342.3413m 
   18.80000m  396.4056m  342.1971m 
   18.90000m  396.5498m  342.0529m 
   19.00000m  396.6939m  341.9088m 
   19.10000m  396.8381m  341.7646m 
   19.20000m  396.9823m  341.6204m 
   19.30000m  397.1265m  341.4763m 
   19.40000m  397.2707m  341.3321m 
   19.50000m  397.4148m  341.1879m 
   19.60000m  397.5590m  341.0437m 
   19.70000m  397.7032m  340.8996m 
   19.80000m  397.8474m  340.7554m 
   19.90000m  397.9916m  340.6112m 
   20.00000m  398.1358m  340.4671m 
   20.10000m  398.2799m  340.3229m 
   20.20000m  398.4241m  340.1787m 
   20.30000m  398.5683m  340.0345m 
   20.40000m  398.7125m  339.8904m 
   20.50000m  398.8567m  339.7462m 
   20.60000m  399.0009m  339.6020m 
   20.70000m  399.1450m  339.4579m 
   20.80000m  399.2892m  339.3137m 
   20.90000m  399.4334m  339.1695m 
   21.00000m  399.5776m  339.0253m 
   21.10000m  399.7218m  338.8812m 
   21.20000m  399.8660m  338.7370m 
   21.30000m  400.0101m  338.5928m 
   21.40000m  400.1543m  338.4486m 
   21.50000m  400.2985m  338.3045m 
   21.60000m  400.4427m  338.1603m 
   21.70000m  400.5869m  338.0161m 
   21.80000m  400.7311m  337.8720m 
   21.90000m  400.8752m  337.7278m 
   22.00000m  401.0194m  337.5836m 
   22.10000m  401.1636m  337.4394m 
   22.20000m  401.3078m  337.2953m 
   22.30000m  401.4520m  337.1511m 
   22.40000m  401.5962m  337.0069m 
   22.50000m  401.7404m  336.8627m 
   22.60000m  401.8845m  336.7186m 
   22.70000m  402.0287m  336.5744m 
   22.80000m  402.1729m  336.4302m 
   22.90000m  402.3171m  336.2861m 
   23.00000m  402.4613m  336.1419m 
   23.10000m  402.6055m  335.9977m 
   23.20000m  402.7497m  335.8535m 
   23.30000m  402.8938m  335.7094m 
   23.40000m  403.0380m  335.5652m 
   23.50000m  403.1822m  335.4210m 
   23.60000m  403.3264m  335.2768m 
   23.70000m  403.4706m  335.1327m 
   23.80000m  403.6148m  334.9885m 
   23.90000m  403.7590m  334.8443m 
   24.00000m  403.9032m  334.7001m 
   24.10000m  404.0473m  334.5560m 
   24.20000m  404.1915m  334.4118m 
   24.30000m  404.3357m  334.2676m 
   24.40000m  404.4799m  334.1234m 
   24.50000m  404.6241m  333.9793m 
   24.60000m  404.7683m  333.8351m 
   24.70000m  404.9125m  333.6909m 
   24.80000m  405.0567m  333.5467m 
   24.90000m  405.2008m  333.4026m 
   25.00000m  405.3450m  333.2584m 
   25.10000m  405.4892m  333.1142m 
   25.20000m  405.6334m  332.9700m 
   25.30000m  405.7776m  332.8259m 
   25.40000m  405.9218m  332.6817m 
   25.50000m  406.0660m  332.5375m 
   25.60000m  406.2102m  332.3933m 
   25.70000m  406.3544m  332.2492m 
   25.80000m  406.4985m  332.1050m 
   25.90000m  406.6427m  331.9608m 
   26.00000m  406.7869m  331.8166m 
   26.10000m  406.9311m  331.6724m 
   26.20000m  407.0753m  331.5283m 
   26.30000m  407.2195m  331.3841m 
   26.40000m  407.3637m  331.2399m 
   26.50000m  407.5079m  331.0957m 
   26.60000m  407.6521m  330.9516m 
   26.70000m  407.7963m  330.8074m 
   26.80000m  407.9404m  330.6632m 
   26.90000m  408.0846m  330.5190m 
   27.00000m  408.2288m  330.3749m 
   27.10000m  408.3730m  330.2307m 
   27.20000m  408.5172m  330.0865m 
   27.30000m  408.6614m  329.9423m 
   27.40000m  408.8056m  329.7981m 
   27.50000m  408.9498m  329.6540m 
   27.60000m  409.0940m  329.5098m 
   27.70000m  409.2382m  329.3656m 
   27.80000m  409.3824m  329.2214m 
   27.90000m  409.5265m  329.0773m 
   28.00000m  409.6707m  328.9331m 
   28.10000m  409.8149m  328.7889m 
   28.20000m  409.9591m  328.6447m 
   28.30000m  410.1033m  328.5005m 
   28.40000m  410.2475m  328.3564m 
   28.50000m  410.3917m  328.2122m 
   28.60000m  410.5359m  328.0680m 
   28.70000m  410.6801m  327.9238m 
   28.80000m  410.8243m  327.7797m 
   28.90000m  410.9685m  327.6355m 
   29.00000m  411.1127m  327.4913m 
   29.10000m  411.2569m  327.3471m 
   29.20000m  411.4011m  327.2029m 
   29.30000m  411.5453m  327.0588m 
   29.40000m  411.6894m  326.9146m 
   29.50000m  411.8336m  326.7704m 
   29.60000m  411.9778m  326.6262m 
   29.70000m  412.1220m  326.4820m 
   29.80000m  412.2662m  326.3379m 
   29.90000m  412.4104m  326.1937m 
   30.00000m  412.5546m  326.0495m 
   30.10000m  412.6988m  325.9053m 
   30.20000m  412.8430m  325.7611m 
   30.30000m  412.9872m  325.6170m 
   30.40000m  413.1314m  325.4728m 
   30.50000m  413.2756m  325.3286m 
   30.60000m  413.4198m  325.1844m 
   30.70000m  413.5640m  325.0402m 
   30.80000m  413.7082m  324.8960m 
   30.90000m  413.8524m  324.7519m 
   31.00000m  413.9966m  324.6077m 
   31.10000m  414.1408m  324.4635m 
   31.20000m  414.2850m  324.3193m 
   31.30000m  414.4292m  324.1751m 
   31.40000m  414.5734m  324.0310m 
   31.50000m  414.7176m  323.8868m 
   31.60000m  414.8618m  323.7426m 
   31.70000m  415.0060m  323.5984m 
   31.80000m  415.1502m  323.4542m 
   31.90000m  415.2944m  323.3100m 
   32.00000m  415.4386m  323.1659m 
   32.10000m  415.5827m  323.0217m 
   32.20000m  415.7269m  322.8775m 
   32.30000m  415.8711m  322.7333m 
   32.40000m  416.0153m  322.5891m 
   32.50000m  416.1595m  322.4449m 
   32.60000m  416.3037m  322.3008m 
   32.70000m  416.4479m  322.1566m 
   32.80000m  416.5921m  322.0124m 
   32.90000m  416.7363m  321.8682m 
   33.00000m  416.8805m  321.7240m 
   33.10000m  417.0247m  321.5798m 
   33.20000m  417.1689m  321.4357m 
   33.30000m  417.3131m  321.2915m 
   33.40000m  417.4573m  321.1473m 
   33.50000m  417.6015m  321.0031m 
   33.60000m  417.7457m  320.8589m 
   33.70000m  417.8899m  320.7147m 
   33.80000m  418.0341m  320.5706m 
   33.90000m  418.1783m  320.4264m 
   34.00000m  418.3225m  320.2822m 
   34.10000m  418.4667m  320.1380m 
   34.20000m  418.6110m  319.9938m 
   34.30000m  418.7552m  319.8496m 
   34.40000m  418.8994m  319.7054m 
   34.50000m  419.0436m  319.5613m 
   34.60000m  419.1878m  319.4171m 
   34.70000m  419.3320m  319.2729m 
   34.80000m  419.4762m  319.1287m 
   34.90000m  419.6204m  318.9845m 
   35.00000m  419.7646m  318.8403m 
   35.10000m  419.9088m  318.6961m 
   35.20000m  420.0530m  318.5520m 
   35.30000m  420.1972m  318.4078m 
   35.40000m  420.3414m  318.2636m 
   35.50000m  420.4856m  318.1194m 
   35.60000m  420.6298m  317.9752m 
   35.70000m  420.7740m  317.8310m 
   35.80000m  420.9182m  317.6868m 
   35.90000m  421.0624m  317.5426m 
   36.00000m  421.2066m  317.3985m 
   36.10000m  421.3508m  317.2543m 
   36.20000m  421.4950m  317.1101m 
   36.30000m  421.6392m  316.9659m 
   36.40000m  421.7834m  316.8217m 
   36.50000m  421.9276m  316.6775m 
   36.60000m  422.0718m  316.5333m 
   36.70000m  422.2160m  316.3891m 
   36.80000m  422.3603m  316.2449m 
   36.90000m  422.5045m  316.1008m 
   37.00000m  422.6487m  315.9566m 
   37.10000m  422.7929m  315.8124m 
   37.20000m  422.9371m  315.6682m 
   37.30000m  423.0813m  315.5240m 
   37.40000m  423.2255m  315.3798m 
   37.50000m  423.3697m  315.2356m 
   37.60000m  423.5139m  315.0914m 
   37.70000m  423.6581m  314.9472m 
   37.80000m  423.8023m  314.8030m 
   37.90000m  423.9465m  314.6588m 
   38.00000m  424.0907m  314.5147m 
   38.10000m  424.2350m  314.3705m 
   38.20000m  424.3792m  314.2263m 
   38.30000m  424.5234m  314.0821m 
   38.40000m  424.6676m  313.9379m 
   38.50000m  424.8118m  313.7937m 
   38.60000m  424.9560m  313.6495m 
   38.70000m  425.1002m  313.5053m 
   38.80000m  425.2444m  313.3611m 
   38.90000m  425.3886m  313.2169m 
   39.00000m  425.5328m  313.0727m 
   39.10000m  425.6770m  312.9285m 
   39.20000m  425.8213m  312.7844m 
   39.30000m  425.9655m  312.6402m 
   39.40000m  426.1097m  312.4960m 
   39.50000m  426.2539m  312.3518m 
   39.60000m  426.3981m  312.2076m 
   39.70000m  426.5423m  312.0634m 
   39.80000m  426.6865m  311.9192m 
   39.90000m  426.8307m  311.7750m 
   40.00000m  426.9749m  311.6308m 
   40.10000m  427.1192m  311.4866m 
   40.20000m  427.2634m  311.3424m 
   40.30000m  427.4076m  311.1982m 
   40.40000m  427.5518m  311.0540m 
   40.50000m  427.6960m  310.9098m 
   40.60000m  427.8402m  310.7656m 
   40.70000m  427.9844m  310.6214m 
   40.80000m  428.1287m  310.4772m 
   40.90000m  428.2729m  310.3330m 
   41.00000m  428.4171m  310.1888m 
   41.10000m  428.5613m  310.0446m 
   41.20000m  428.7055m  309.9005m 
   41.30000m  428.8497m  309.7563m 
   41.40000m  428.9939m  309.6121m 
   41.50000m  429.1382m  309.4679m 
   41.60000m  429.2824m  309.3237m 
   41.70000m  429.4266m  309.1795m 
   41.80000m  429.5708m  309.0353m 
   41.90000m  429.7150m  308.8911m 
   42.00000m  429.8592m  308.7469m 
   42.10000m  430.0034m  308.6027m 
   42.20000m  430.1477m  308.4585m 
   42.30000m  430.2919m  308.3143m 
   42.40000m  430.4361m  308.1701m 
   42.50000m  430.5803m  308.0259m 
   42.60000m  430.7245m  307.8817m 
   42.70000m  430.8687m  307.7375m 
   42.80000m  431.0130m  307.5933m 
   42.90000m  431.1572m  307.4491m 
   43.00000m  431.3014m  307.3049m 
   43.10000m  431.4456m  307.1607m 
   43.20000m  431.5898m  307.0165m 
   43.30000m  431.7341m  306.8723m 
   43.40000m  431.8783m  306.7281m 
   43.50000m  432.0225m  306.5839m 
   43.60000m  432.1667m  306.4397m 
   43.70000m  432.3109m  306.2955m 
   43.80000m  432.4552m  306.1513m 
   43.90000m  432.5994m  306.0071m 
   44.00000m  432.7436m  305.8629m 
   44.10000m  432.8878m  305.7187m 
   44.20000m  433.0320m  305.5745m 
   44.30000m  433.1763m  305.4303m 
   44.40000m  433.3205m  305.2861m 
   44.50000m  433.4647m  305.1419m 
   44.60000m  433.6089m  304.9977m 
   44.70000m  433.7531m  304.8534m 
   44.80000m  433.8974m  304.7092m 
   44.90000m  434.0416m  304.5650m 
   45.00000m  434.1858m  304.4208m 
   45.10000m  434.3300m  304.2766m 
   45.20000m  434.4742m  304.1324m 
   45.30000m  434.6185m  303.9882m 
   45.40000m  434.7627m  303.8440m 
   45.50000m  434.9069m  303.6998m 
   45.60000m  435.0511m  303.5556m 
   45.70000m  435.1954m  303.4114m 
   45.80000m  435.3396m  303.2672m 
   45.90000m  435.4838m  303.1230m 
   46.00000m  435.6280m  302.9788m 
   46.10000m  435.7723m  302.8346m 
   46.20000m  435.9165m  302.6904m 
   46.30000m  436.0607m  302.5462m 
   46.40000m  436.2049m  302.4020m 
   46.50000m  436.3492m  302.2577m 
   46.60000m  436.4934m  302.1135m 
   46.70000m  436.6376m  301.9693m 
   46.80000m  436.7818m  301.8251m 
   46.90000m  436.9261m  301.6809m 
   47.00000m  437.0703m  301.5367m 
   47.10000m  437.2145m  301.3925m 
   47.20000m  437.3587m  301.2483m 
   47.30000m  437.5030m  301.1041m 
   47.40000m  437.6472m  300.9599m 
   47.50000m  437.7914m  300.8157m 
   47.60000m  437.9357m  300.6715m 
   47.70000m  438.0799m  300.5272m 
   47.80000m  438.2241m  300.3830m 
   47.90000m  438.3683m  300.2388m 
   48.00000m  438.5126m  300.0946m 
   48.10000m  438.6568m  299.9504m 
   48.20000m  438.8010m  299.8062m 
   48.30000m  438.9453m  299.6620m 
   48.40000m  439.0895m  299.5178m 
   48.50000m  439.2337m  299.3736m 
   48.60000m  439.3779m  299.2293m 
   48.70000m  439.5222m  299.0851m 
   48.80000m  439.6664m  298.9409m 
   48.90000m  439.8106m  298.7967m 
   49.00000m  439.9549m  298.6525m 
   49.10000m  440.0991m  298.5083m 
   49.20000m  440.2433m  298.3641m 
   49.30000m  440.3876m  298.2198m 
   49.40000m  440.5318m  298.0756m 
   49.50000m  440.6760m  297.9314m 
   49.60000m  440.8203m  297.7872m 
   49.70000m  440.9645m  297.6430m 
   49.80000m  441.1087m  297.4988m 
   49.90000m  441.2530m  297.3546m 
   50.00000m  441.3972m  297.2103m 
   50.10000m  441.5414m  297.0661m 
   50.20000m  441.6857m  296.9219m 
   50.30000m  441.8299m  296.7777m 
   50.40000m  441.9741m  296.6335m 
   50.50000m  442.1184m  296.4893m 
   50.60000m  442.2626m  296.3450m 
   50.70000m  442.4068m  296.2008m 
   50.80000m  442.5511m  296.0566m 
   50.90000m  442.6953m  295.9124m 
   51.00000m  442.8395m  295.7682m 
   51.10000m  442.9838m  295.6240m 
   51.20000m  443.1280m  295.4797m 
   51.30000m  443.2723m  295.3355m 
   51.40000m  443.4165m  295.1913m 
   51.50000m  443.5607m  295.0471m 
   51.60000m  443.7050m  294.9029m 
   51.70000m  443.8492m  294.7586m 
   51.80000m  443.9934m  294.6144m 
   51.90000m  444.1377m  294.4702m 
   52.00000m  444.2819m  294.3260m 
   52.10000m  444.4262m  294.1818m 
   52.20000m  444.5704m  294.0375m 
   52.30000m  444.7146m  293.8933m 
   52.40000m  444.8589m  293.7491m 
   52.50000m  445.0031m  293.6049m 
   52.60000m  445.1473m  293.4606m 
   52.70000m  445.2916m  293.3164m 
   52.80000m  445.4358m  293.1722m 
   52.90000m  445.5801m  293.0280m 
   53.00000m  445.7243m  292.8837m 
   53.10000m  445.8686m  292.7395m 
   53.20000m  446.0128m  292.5953m 
   53.30000m  446.1570m  292.4511m 
   53.40000m  446.3013m  292.3069m 
   53.50000m  446.4455m  292.1626m 
   53.60000m  446.5898m  292.0184m 
   53.70000m  446.7340m  291.8742m 
   53.80000m  446.8782m  291.7299m 
   53.90000m  447.0225m  291.5857m 
   54.00000m  447.1667m  291.4415m 
   54.10000m  447.3110m  291.2973m 
   54.20000m  447.4552m  291.1530m 
   54.30000m  447.5995m  291.0088m 
   54.40000m  447.7437m  290.8646m 
   54.50000m  447.8880m  290.7204m 
   54.60000m  448.0322m  290.5761m 
   54.70000m  448.1764m  290.4319m 
   54.80000m  448.3207m  290.2877m 
   54.90000m  448.4649m  290.1434m 
   55.00000m  448.6092m  289.9992m 
   55.10000m  448.7534m  289.8550m 
   55.20000m  448.8977m  289.7108m 
   55.30000m  449.0419m  289.5665m 
   55.40000m  449.1862m  289.4223m 
   55.50000m  449.3304m  289.2781m 
   55.60000m  449.4747m  289.1338m 
   55.70000m  449.6189m  288.9896m 
   55.80000m  449.7632m  288.8454m 
   55.90000m  449.9074m  288.7011m 
   56.00000m  450.0517m  288.5569m 
   56.10000m  450.1959m  288.4127m 
   56.20000m  450.3402m  288.2684m 
   56.30000m  450.4844m  288.1242m 
   56.40000m  450.6287m  287.9800m 
   56.50000m  450.7729m  287.8357m 
   56.60000m  450.9172m  287.6915m 
   56.70000m  451.0614m  287.5473m 
   56.80000m  451.2057m  287.4030m 
   56.90000m  451.3499m  287.2588m 
   57.00000m  451.4942m  287.1146m 
   57.10000m  451.6384m  286.9703m 
   57.20000m  451.7827m  286.8261m 
   57.30000m  451.9269m  286.6818m 
   57.40000m  452.0712m  286.5376m 
   57.50000m  452.2154m  286.3934m 
   57.60000m  452.3597m  286.2491m 
   57.70000m  452.5039m  286.1049m 
   57.80000m  452.6482m  285.9607m 
   57.90000m  452.7924m  285.8164m 
   58.00000m  452.9367m  285.6722m 
   58.10000m  453.0809m  285.5279m 
   58.20000m  453.2252m  285.3837m 
   58.30000m  453.3695m  285.2395m 
   58.40000m  453.5137m  285.0952m 
   58.50000m  453.6580m  284.9510m 
   58.60000m  453.8022m  284.8067m 
   58.70000m  453.9465m  284.6625m 
   58.80000m  454.0907m  284.5183m 
   58.90000m  454.2350m  284.3740m 
   59.00000m  454.3793m  284.2298m 
   59.10000m  454.5235m  284.0855m 
   59.20000m  454.6678m  283.9413m 
   59.30000m  454.8120m  283.7970m 
   59.40000m  454.9563m  283.6528m 
   59.50000m  455.1005m  283.5086m 
   59.60000m  455.2448m  283.3643m 
   59.70000m  455.3891m  283.2201m 
   59.80000m  455.5333m  283.0758m 
   59.90000m  455.6776m  282.9316m 
   60.00000m  455.8218m  282.7873m 
   60.10000m  455.9661m  282.6431m 
   60.20000m  456.1104m  282.4988m 
   60.30000m  456.2546m  282.3546m 
   60.40000m  456.3989m  282.2103m 
   60.50000m  456.5431m  282.0661m 
   60.60000m  456.6874m  281.9219m 
   60.70000m  456.8317m  281.7776m 
   60.80000m  456.9759m  281.6334m 
   60.90000m  457.1202m  281.4891m 
   61.00000m  457.2645m  281.3449m 
   61.10000m  457.4087m  281.2006m 
   61.20000m  457.5530m  281.0564m 
   61.30000m  457.6973m  280.9121m 
   61.40000m  457.8415m  280.7679m 
   61.50000m  457.9858m  280.6236m 
   61.60000m  458.1300m  280.4794m 
   61.70000m  458.2743m  280.3351m 
   61.80000m  458.4186m  280.1908m 
   61.90000m  458.5628m  280.0466m 
   62.00000m  458.7071m  279.9023m 
   62.10000m  458.8514m  279.7581m 
   62.20000m  458.9956m  279.6138m 
   62.30000m  459.1399m  279.4696m 
   62.40000m  459.2842m  279.3253m 
   62.50000m  459.4284m  279.1811m 
   62.60000m  459.5727m  279.0368m 
   62.70000m  459.7170m  278.8926m 
   62.80000m  459.8613m  278.7483m 
   62.90000m  460.0055m  278.6040m 
   63.00000m  460.1498m  278.4598m 
   63.10000m  460.2941m  278.3155m 
   63.20000m  460.4383m  278.1713m 
   63.30000m  460.5826m  278.0270m 
   63.40000m  460.7269m  277.8828m 
   63.50000m  460.8711m  277.7385m 
   63.60000m  461.0154m  277.5942m 
   63.70000m  461.1597m  277.4500m 
   63.80000m  461.3040m  277.3057m 
   63.90000m  461.4482m  277.1615m 
   64.00000m  461.5925m  277.0172m 
   64.10000m  461.7368m  276.8729m 
   64.20000m  461.8810m  276.7287m 
   64.30000m  462.0253m  276.5844m 
   64.40000m  462.1696m  276.4402m 
   64.50000m  462.3139m  276.2959m 
   64.60000m  462.4581m  276.1516m 
   64.70000m  462.6024m  276.0074m 
   64.80000m  462.7467m  275.8631m 
   64.90000m  462.8910m  275.7188m 
   65.00000m  463.0352m  275.5746m 
   65.10000m  463.1795m  275.4303m 
   65.20000m  463.3238m  275.2860m 
   65.30000m  463.4681m  275.1418m 
   65.40000m  463.6124m  274.9975m 
   65.50000m  463.7566m  274.8532m 
   65.60000m  463.9009m  274.7090m 
   65.70000m  464.0452m  274.5647m 
   65.80000m  464.1895m  274.4204m 
   65.90000m  464.3337m  274.2762m 
   66.00000m  464.4780m  274.1319m 
   66.10000m  464.6223m  273.9876m 
   66.20000m  464.7666m  273.8434m 
   66.30000m  464.9109m  273.6991m 
   66.40000m  465.0551m  273.5548m 
   66.50000m  465.1994m  273.4105m 
   66.60000m  465.3437m  273.2663m 
   66.70000m  465.4880m  273.1220m 
   66.80000m  465.6323m  272.9777m 
   66.90000m  465.7765m  272.8335m 
   67.00000m  465.9208m  272.6892m 
   67.10000m  466.0651m  272.5449m 
   67.20000m  466.2094m  272.4006m 
   67.30000m  466.3537m  272.2564m 
   67.40000m  466.4980m  272.1121m 
   67.50000m  466.6423m  271.9678m 
   67.60000m  466.7865m  271.8235m 
   67.70000m  466.9308m  271.6793m 
   67.80000m  467.0751m  271.5350m 
   67.90000m  467.2194m  271.3907m 
   68.00000m  467.3637m  271.2464m 
   68.10000m  467.5080m  271.1021m 
   68.20000m  467.6522m  270.9579m 
   68.30000m  467.7965m  270.8136m 
   68.40000m  467.9408m  270.6693m 
   68.50000m  468.0851m  270.5250m 
   68.60000m  468.2294m  270.3807m 
   68.70000m  468.3737m  270.2365m 
   68.80000m  468.5180m  270.0922m 
   68.90000m  468.6623m  269.9479m 
   69.00000m  468.8066m  269.8036m 
   69.10000m  468.9508m  269.6593m 
   69.20000m  469.0951m  269.5151m 
   69.30000m  469.2394m  269.3708m 
   69.40000m  469.3837m  269.2265m 
   69.50000m  469.5280m  269.0822m 
   69.60000m  469.6723m  268.9379m 
   69.70000m  469.8166m  268.7936m 
   69.80000m  469.9609m  268.6493m 
   69.90000m  470.1052m  268.5051m 
   70.00000m  470.2495m  268.3608m 
   70.10000m  470.3938m  268.2165m 
   70.20000m  470.5381m  268.0722m 
   70.30000m  470.6824m  267.9279m 
   70.40000m  470.8266m  267.7836m 
   70.50000m  470.9709m  267.6393m 
   70.60000m  471.1152m  267.4950m 
   70.70000m  471.2595m  267.3507m 
   70.80000m  471.4038m  267.2065m 
   70.90000m  471.5481m  267.0622m 
   71.00000m  471.6924m  266.9179m 
   71.10000m  471.8367m  266.7736m 
   71.20000m  471.9810m  266.6293m 
   71.30000m  472.1253m  266.4850m 
   71.40000m  472.2696m  266.3407m 
   71.50000m  472.4139m  266.1964m 
   71.60000m  472.5582m  266.0521m 
   71.70000m  472.7025m  265.9078m 
   71.80000m  472.8468m  265.7635m 
   71.90000m  472.9911m  265.6192m 
   72.00000m  473.1354m  265.4749m 
   72.10000m  473.2797m  265.3306m 
   72.20000m  473.4240m  265.1863m 
   72.30000m  473.5683m  265.0420m 
   72.40000m  473.7126m  264.8977m 
   72.50000m  473.8569m  264.7534m 
   72.60000m  474.0012m  264.6091m 
   72.70000m  474.1455m  264.4648m 
   72.80000m  474.2898m  264.3205m 
   72.90000m  474.4341m  264.1762m 
   73.00000m  474.5784m  264.0319m 
   73.10000m  474.7227m  263.8876m 
   73.20000m  474.8671m  263.7433m 
   73.30000m  475.0114m  263.5990m 
   73.40000m  475.1557m  263.4547m 
   73.50000m  475.3000m  263.3104m 
   73.60000m  475.4443m  263.1661m 
   73.70000m  475.5886m  263.0218m 
   73.80000m  475.7329m  262.8775m 
   73.90000m  475.8772m  262.7332m 
   74.00000m  476.0215m  262.5889m 
   74.10000m  476.1658m  262.4446m 
   74.20000m  476.3101m  262.3002m 
   74.30000m  476.4544m  262.1559m 
   74.40000m  476.5987m  262.0116m 
   74.50000m  476.7431m  261.8673m 
   74.60000m  476.8874m  261.7230m 
   74.70000m  477.0317m  261.5787m 
   74.80000m  477.1760m  261.4344m 
   74.90000m  477.3203m  261.2901m 
   75.00000m  477.4646m  261.1457m 
   75.10000m  477.6089m  261.0014m 
   75.20000m  477.7532m  260.8571m 
   75.30000m  477.8976m  260.7128m 
   75.40000m  478.0419m  260.5685m 
   75.50000m  478.1862m  260.4242m 
   75.60000m  478.3305m  260.2799m 
   75.70000m  478.4748m  260.1355m 
   75.80000m  478.6191m  259.9912m 
   75.90000m  478.7634m  259.8469m 
   76.00000m  478.9078m  259.7026m 
   76.10000m  479.0521m  259.5583m 
   76.20000m  479.1964m  259.4139m 
   76.30000m  479.3407m  259.2696m 
   76.40000m  479.4850m  259.1253m 
   76.50000m  479.6293m  258.9810m 
   76.60000m  479.7737m  258.8367m 
   76.70000m  479.9180m  258.6923m 
   76.80000m  480.0623m  258.5480m 
   76.90000m  480.2066m  258.4037m 
   77.00000m  480.3509m  258.2594m 
   77.10000m  480.4953m  258.1150m 
   77.20000m  480.6396m  257.9707m 
   77.30000m  480.7839m  257.8264m 
   77.40000m  480.9282m  257.6820m 
   77.50000m  481.0726m  257.5377m 
   77.60000m  481.2169m  257.3934m 
   77.70000m  481.3612m  257.2491m 
   77.80000m  481.5055m  257.1047m 
   77.90000m  481.6499m  256.9604m 
   78.00000m  481.7942m  256.8161m 
   78.10000m  481.9385m  256.6717m 
   78.20000m  482.0828m  256.5274m 
   78.30000m  482.2272m  256.3831m 
   78.40000m  482.3715m  256.2387m 
   78.50000m  482.5158m  256.0944m 
   78.60000m  482.6601m  255.9501m 
   78.70000m  482.8045m  255.8057m 
   78.80000m  482.9488m  255.6614m 
   78.90000m  483.0931m  255.5171m 
   79.00000m  483.2375m  255.3727m 
   79.10000m  483.3818m  255.2284m 
   79.20000m  483.5261m  255.0840m 
   79.30000m  483.6704m  254.9397m 
   79.40000m  483.8148m  254.7954m 
   79.50000m  483.9591m  254.6510m 
   79.60000m  484.1034m  254.5067m 
   79.70000m  484.2478m  254.3623m 
   79.80000m  484.3921m  254.2180m 
   79.90000m  484.5364m  254.0737m 
   80.00000m  484.6808m  253.9293m 
   80.10000m  484.8251m  253.7850m 
   80.20000m  484.9694m  253.6406m 
   80.30000m  485.1138m  253.4963m 
   80.40000m  485.2581m  253.3519m 
   80.50000m  485.4024m  253.2076m 
   80.60000m  485.5468m  253.0632m 
   80.70000m  485.6911m  252.9189m 
   80.80000m  485.8355m  252.7745m 
   80.90000m  485.9798m  252.6302m 
   81.00000m  486.1241m  252.4858m 
   81.10000m  486.2685m  252.3415m 
   81.20000m  486.4128m  252.1971m 
   81.30000m  486.5571m  252.0528m 
   81.40000m  486.7015m  251.9084m 
   81.50000m  486.8458m  251.7641m 
   81.60000m  486.9902m  251.6197m 
   81.70000m  487.1345m  251.4754m 
   81.80000m  487.2789m  251.3310m 
   81.90000m  487.4232m  251.1866m 
   82.00000m  487.5675m  251.0423m 
   82.10000m  487.7119m  250.8979m 
   82.20000m  487.8562m  250.7536m 
   82.30000m  488.0006m  250.6092m 
   82.40000m  488.1449m  250.4648m 
   82.50000m  488.2893m  250.3205m 
   82.60000m  488.4336m  250.1761m 
   82.70000m  488.5780m  250.0318m 
   82.80000m  488.7223m  249.8874m 
   82.90000m  488.8666m  249.7430m 
   83.00000m  489.0110m  249.5987m 
   83.10000m  489.1553m  249.4543m 
   83.20000m  489.2997m  249.3099m 
   83.30000m  489.4440m  249.1656m 
   83.40000m  489.5884m  249.0212m 
   83.50000m  489.7327m  248.8768m 
   83.60000m  489.8771m  248.7325m 
   83.70000m  490.0214m  248.5881m 
   83.80000m  490.1658m  248.4437m 
   83.90000m  490.3101m  248.2993m 
   84.00000m  490.4545m  248.1550m 
   84.10000m  490.5989m  248.0106m 
   84.20000m  490.7432m  247.8662m 
   84.30000m  490.8876m  247.7218m 
   84.40000m  491.0319m  247.5775m 
   84.50000m  491.1763m  247.4331m 
   84.60000m  491.3206m  247.2887m 
   84.70000m  491.4650m  247.1443m 
   84.80000m  491.6093m  247.0000m 
   84.90000m  491.7537m  246.8556m 
   85.00000m  491.8981m  246.7112m 
   85.10000m  492.0424m  246.5668m 
   85.20000m  492.1868m  246.4224m 
   85.30000m  492.3311m  246.2781m 
   85.40000m  492.4755m  246.1337m 
   85.50000m  492.6198m  245.9893m 
   85.60000m  492.7642m  245.8449m 
   85.70000m  492.9086m  245.7005m 
   85.80000m  493.0529m  245.5561m 
   85.90000m  493.1973m  245.4117m 
   86.00000m  493.3417m  245.2674m 
   86.10000m  493.4860m  245.1230m 
   86.20000m  493.6304m  244.9786m 
   86.30000m  493.7747m  244.8342m 
   86.40000m  493.9191m  244.6898m 
   86.50000m  494.0635m  244.5454m 
   86.60000m  494.2078m  244.4010m 
   86.70000m  494.3522m  244.2566m 
   86.80000m  494.4966m  244.1122m 
   86.90000m  494.6409m  243.9678m 
   87.00000m  494.7853m  243.8234m 
   87.10000m  494.9297m  243.6790m 
   87.20000m  495.0740m  243.5346m 
   87.30000m  495.2184m  243.3902m 
   87.40000m  495.3628m  243.2458m 
   87.50000m  495.5072m  243.1014m 
   87.60000m  495.6515m  242.9570m 
   87.70000m  495.7959m  242.8126m 
   87.80000m  495.9403m  242.6682m 
   87.90000m  496.0846m  242.5238m 
   88.00000m  496.2290m  242.3794m 
   88.10000m  496.3734m  242.2350m 
   88.20000m  496.5178m  242.0906m 
   88.30000m  496.6621m  241.9462m 
   88.40000m  496.8065m  241.8018m 
   88.50000m  496.9509m  241.6574m 
   88.60000m  497.0953m  241.5130m 
   88.70000m  497.2396m  241.3686m 
   88.80000m  497.3840m  241.2241m 
   88.90000m  497.5284m  241.0797m 
   89.00000m  497.6728m  240.9353m 
   89.10000m  497.8172m  240.7909m 
   89.20000m  497.9615m  240.6465m 
   89.30000m  498.1059m  240.5021m 
   89.40000m  498.2503m  240.3577m 
   89.50000m  498.3947m  240.2132m 
   89.60000m  498.5391m  240.0688m 
   89.70000m  498.6834m  239.9244m 
   89.80000m  498.8278m  239.7800m 
   89.90000m  498.9722m  239.6356m 
   90.00000m  499.1166m  239.4911m 
   90.10000m  499.2610m  239.3467m 
   90.20000m  499.4054m  239.2023m 
   90.30000m  499.5497m  239.0579m 
   90.40000m  499.6941m  238.9134m 
   90.50000m  499.8385m  238.7690m 
   90.60000m  499.9829m  238.6246m 
   90.70000m  500.1273m  238.4802m 
   90.80000m  500.2717m  238.3357m 
   90.90000m  500.4161m  238.1913m 
   91.00000m  500.5605m  238.0469m 
   91.10000m  500.7049m  237.9024m 
   91.20000m  500.8492m  237.7580m 
   91.30000m  500.9936m  237.6136m 
   91.40000m  501.1380m  237.4691m 
   91.50000m  501.2824m  237.3247m 
   91.60000m  501.4268m  237.1803m 
   91.70000m  501.5712m  237.0358m 
   91.80000m  501.7156m  236.8914m 
   91.90000m  501.8600m  236.7469m 
   92.00000m  502.0044m  236.6025m 
   92.10000m  502.1488m  236.4580m 
   92.20000m  502.2932m  236.3136m 
   92.30000m  502.4376m  236.1692m 
   92.40000m  502.5820m  236.0247m 
   92.50000m  502.7264m  235.8803m 
   92.60000m  502.8708m  235.7358m 
   92.70000m  503.0152m  235.5914m 
   92.80000m  503.1596m  235.4469m 
   92.90000m  503.3040m  235.3025m 
   93.00000m  503.4484m  235.1580m 
   93.10000m  503.5928m  235.0136m 
   93.20000m  503.7372m  234.8691m 
   93.30000m  503.8816m  234.7247m 
   93.40000m  504.0260m  234.5802m 
   93.50000m  504.1704m  234.4358m 
   93.60000m  504.3148m  234.2913m 
   93.70000m  504.4592m  234.1468m 
   93.80000m  504.6036m  234.0024m 
   93.90000m  504.7480m  233.8579m 
   94.00000m  504.8924m  233.7135m 
   94.10000m  505.0368m  233.5690m 
   94.20000m  505.1812m  233.4245m 
   94.30000m  505.3256m  233.2801m 
   94.40000m  505.4701m  233.1356m 
   94.50000m  505.6145m  232.9911m 
   94.60000m  505.7589m  232.8467m 
   94.70000m  505.9033m  232.7022m 
   94.80000m  506.0477m  232.5577m 
   94.90000m  506.1921m  232.4133m 
   95.00000m  506.3365m  232.2688m 
   95.10000m  506.4809m  232.1243m 
   95.20000m  506.6254m  231.9798m 
   95.30000m  506.7698m  231.8354m 
   95.40000m  506.9142m  231.6909m 
   95.50000m  507.0586m  231.5464m 
   95.60000m  507.2030m  231.4019m 
   95.70000m  507.3474m  231.2574m 
   95.80000m  507.4919m  231.1130m 
   95.90000m  507.6363m  230.9685m 
   96.00000m  507.7807m  230.8240m 
   96.10000m  507.9251m  230.6795m 
   96.20000m  508.0695m  230.5350m 
   96.30000m  508.2140m  230.3905m 
   96.40000m  508.3584m  230.2461m 
   96.50000m  508.5028m  230.1016m 
   96.60000m  508.6472m  229.9571m 
   96.70000m  508.7917m  229.8126m 
   96.80000m  508.9361m  229.6681m 
   96.90000m  509.0805m  229.5236m 
   97.00000m  509.2249m  229.3791m 
   97.10000m  509.3694m  229.2346m 
   97.20000m  509.5138m  229.0901m 
   97.30000m  509.6582m  228.9456m 
   97.40000m  509.8026m  228.8011m 
   97.50000m  509.9471m  228.6566m 
   97.60000m  510.0915m  228.5121m 
   97.70000m  510.2359m  228.3676m 
   97.80000m  510.3804m  228.2231m 
   97.90000m  510.5248m  228.0786m 
   98.00000m  510.6692m  227.9341m 
   98.10000m  510.8137m  227.7896m 
   98.20000m  510.9581m  227.6451m 
   98.30000m  511.1025m  227.5006m 
   98.40000m  511.2470m  227.3561m 
   98.50000m  511.3914m  227.2115m 
   98.60000m  511.5358m  227.0670m 
   98.70000m  511.6803m  226.9225m 
   98.80000m  511.8247m  226.7780m 
   98.90000m  511.9692m  226.6335m 
   99.00000m  512.1136m  226.4890m 
   99.10000m  512.2580m  226.3444m 
   99.20000m  512.4025m  226.1999m 
   99.30000m  512.5469m  226.0554m 
   99.40000m  512.6914m  225.9109m 
   99.50000m  512.8358m  225.7664m 
   99.60000m  512.9803m  225.6218m 
   99.70000m  513.1247m  225.4773m 
   99.80000m  513.2691m  225.3328m 
   99.90000m  513.4136m  225.1882m 
  100.00000m  513.5580m  225.0437m 
  100.10000m  513.7025m  224.8992m 
  100.20000m  513.8469m  224.7546m 
  100.30000m  513.9914m  224.6101m 
  100.40000m  514.1358m  224.4656m 
  100.50000m  514.2803m  224.3210m 
  100.60000m  514.4247m  224.1765m 
  100.70000m  514.5692m  224.0320m 
  100.80000m  514.7136m  223.8874m 
  100.90000m  514.8581m  223.7429m 
  101.00000m  515.0025m  223.5983m 
  101.10000m  515.1470m  223.4538m 
  101.20000m  515.2914m  223.3092m 
  101.30000m  515.4359m  223.1647m 
  101.40000m  515.5804m  223.0201m 
  101.50000m  515.7248m  222.8756m 
  101.60000m  515.8693m  222.7310m 
  101.70000m  516.0137m  222.5865m 
  101.80000m  516.1582m  222.4419m 
  101.90000m  516.3027m  222.2974m 
  102.00000m  516.4471m  222.1528m 
  102.10000m  516.5916m  222.0083m 
  102.20000m  516.7360m  221.8637m 
  102.30000m  516.8805m  221.7191m 
  102.40000m  517.0250m  221.5746m 
  102.50000m  517.1694m  221.4300m 
  102.60000m  517.3139m  221.2854m 
  102.70000m  517.4584m  221.1409m 
  102.80000m  517.6028m  220.9963m 
  102.90000m  517.7473m  220.8517m 
  103.00000m  517.8918m  220.7072m 
  103.10000m  518.0362m  220.5626m 
  103.20000m  518.1807m  220.4180m 
  103.30000m  518.3252m  220.2734m 
  103.40000m  518.4697m  220.1289m 
  103.50000m  518.6141m  219.9843m 
  103.60000m  518.7586m  219.8397m 
  103.70000m  518.9031m  219.6951m 
  103.80000m  519.0475m  219.5505m 
  103.90000m  519.1920m  219.4060m 
  104.00000m  519.3365m  219.2614m 
  104.10000m  519.4810m  219.1168m 
  104.20000m  519.6255m  218.9722m 
  104.30000m  519.7699m  218.8276m 
  104.40000m  519.9144m  218.6830m 
  104.50000m  520.0589m  218.5384m 
  104.60000m  520.2034m  218.3938m 
  104.70000m  520.3479m  218.2492m 
  104.80000m  520.4923m  218.1046m 
  104.90000m  520.6368m  217.9600m 
  105.00000m  520.7813m  217.8154m 
  105.10000m  520.9258m  217.6708m 
  105.20000m  521.0703m  217.5262m 
  105.30000m  521.2148m  217.3816m 
  105.40000m  521.3592m  217.2370m 
  105.50000m  521.5037m  217.0924m 
  105.60000m  521.6482m  216.9478m 
  105.70000m  521.7927m  216.8032m 
  105.80000m  521.9372m  216.6586m 
  105.90000m  522.0817m  216.5140m 
  106.00000m  522.2262m  216.3693m 
  106.10000m  522.3707m  216.2247m 
  106.20000m  522.5152m  216.0801m 
  106.30000m  522.6597m  215.9355m 
  106.40000m  522.8042m  215.7909m 
  106.50000m  522.9487m  215.6462m 
  106.60000m  523.0932m  215.5016m 
  106.70000m  523.2377m  215.3570m 
  106.80000m  523.3822m  215.2123m 
  106.90000m  523.5267m  215.0677m 
  107.00000m  523.6712m  214.9231m 
  107.10000m  523.8157m  214.7785m 
  107.20000m  523.9602m  214.6338m 
  107.30000m  524.1047m  214.4892m 
  107.40000m  524.2492m  214.3445m 
  107.50000m  524.3937m  214.1999m 
  107.60000m  524.5382m  214.0553m 
  107.70000m  524.6827m  213.9106m 
  107.80000m  524.8272m  213.7660m 
  107.90000m  524.9717m  213.6213m 
  108.00000m  525.1162m  213.4767m 
  108.10000m  525.2607m  213.3320m 
  108.20000m  525.4052m  213.1874m 
  108.30000m  525.5497m  213.0427m 
  108.40000m  525.6942m  212.8981m 
  108.50000m  525.8388m  212.7534m 
  108.60000m  525.9833m  212.6087m 
  108.70000m  526.1278m  212.4641m 
  108.80000m  526.2723m  212.3194m 
  108.90000m  526.4168m  212.1748m 
  109.00000m  526.5613m  212.0301m 
  109.10000m  526.7059m  211.8854m 
  109.20000m  526.8504m  211.7407m 
  109.30000m  526.9949m  211.5961m 
  109.40000m  527.1394m  211.4514m 
  109.50000m  527.2839m  211.3067m 
  109.60000m  527.4285m  211.1621m 
  109.70000m  527.5730m  211.0174m 
  109.80000m  527.7175m  210.8727m 
  109.90000m  527.8620m  210.7280m 
  110.00000m  528.0066m  210.5833m 
  110.10000m  528.1511m  210.4386m 
  110.20000m  528.2956m  210.2940m 
  110.30000m  528.4401m  210.1493m 
  110.40000m  528.5847m  210.0046m 
  110.50000m  528.7292m  209.8599m 
  110.60000m  528.8737m  209.7152m 
  110.70000m  529.0183m  209.5705m 
  110.80000m  529.1628m  209.4258m 
  110.90000m  529.3073m  209.2811m 
  111.00000m  529.4519m  209.1364m 
  111.10000m  529.5964m  208.9917m 
  111.20000m  529.7409m  208.8470m 
  111.30000m  529.8855m  208.7023m 
  111.40000m  530.0300m  208.5576m 
  111.50000m  530.1746m  208.4128m 
  111.60000m  530.3191m  208.2681m 
  111.70000m  530.4636m  208.1234m 
  111.80000m  530.6082m  207.9787m 
  111.90000m  530.7527m  207.8340m 
  112.00000m  530.8973m  207.6893m 
  112.10000m  531.0418m  207.5445m 
  112.20000m  531.1864m  207.3998m 
  112.30000m  531.3309m  207.2551m 
  112.40000m  531.4755m  207.1103m 
  112.50000m  531.6200m  206.9656m 
  112.60000m  531.7646m  206.8209m 
  112.70000m  531.9091m  206.6761m 
  112.80000m  532.0537m  206.5314m 
  112.90000m  532.1982m  206.3867m 
  113.00000m  532.3428m  206.2419m 
  113.10000m  532.4873m  206.0972m 
  113.20000m  532.6319m  205.9524m 
  113.30000m  532.7764m  205.8077m 
  113.40000m  532.9210m  205.6629m 
  113.50000m  533.0656m  205.5182m 
  113.60000m  533.2101m  205.3734m 
  113.70000m  533.3547m  205.2287m 
  113.80000m  533.4992m  205.0839m 
  113.90000m  533.6438m  204.9392m 
  114.00000m  533.7884m  204.7944m 
  114.10000m  533.9329m  204.6496m 
  114.20000m  534.0775m  204.5049m 
  114.30000m  534.2221m  204.3601m 
  114.40000m  534.3666m  204.2153m 
  114.50000m  534.5112m  204.0706m 
  114.60000m  534.6558m  203.9258m 
  114.70000m  534.8003m  203.7810m 
  114.80000m  534.9449m  203.6362m 
  114.90000m  535.0895m  203.4914m 
  115.00000m  535.2341m  203.3467m 
  115.10000m  535.3786m  203.2019m 
  115.20000m  535.5232m  203.0571m 
  115.30000m  535.6678m  202.9123m 
  115.40000m  535.8124m  202.7675m 
  115.50000m  535.9570m  202.6227m 
  115.60000m  536.1015m  202.4779m 
  115.70000m  536.2461m  202.3331m 
  115.80000m  536.3907m  202.1883m 
  115.90000m  536.5353m  202.0435m 
  116.00000m  536.6799m  201.8987m 
  116.10000m  536.8245m  201.7539m 
  116.20000m  536.9690m  201.6091m 
  116.30000m  537.1136m  201.4643m 
  116.40000m  537.2582m  201.3194m 
  116.50000m  537.4028m  201.1746m 
  116.60000m  537.5474m  201.0298m 
  116.70000m  537.6920m  200.8850m 
  116.80000m  537.8366m  200.7402m 
  116.90000m  537.9812m  200.5953m 
  117.00000m  538.1258m  200.4505m 
  117.10000m  538.2704m  200.3057m 
  117.20000m  538.4150m  200.1608m 
  117.30000m  538.5596m  200.0160m 
  117.40000m  538.7042m  199.8712m 
  117.50000m  538.8488m  199.7263m 
  117.60000m  538.9934m  199.5815m 
  117.70000m  539.1380m  199.4366m 
  117.80000m  539.2826m  199.2918m 
  117.90000m  539.4272m  199.1469m 
  118.00000m  539.5718m  199.0021m 
  118.10000m  539.7164m  198.8572m 
  118.20000m  539.8610m  198.7124m 
  118.30000m  540.0056m  198.5675m 
  118.40000m  540.1502m  198.4226m 
  118.50000m  540.2948m  198.2778m 
  118.60000m  540.4394m  198.1329m 
  118.70000m  540.5841m  197.9880m 
  118.80000m  540.7287m  197.8432m 
  118.90000m  540.8733m  197.6983m 
  119.00000m  541.0179m  197.5534m 
  119.10000m  541.1625m  197.4085m 
  119.20000m  541.3072m  197.2636m 
  119.30000m  541.4518m  197.1188m 
  119.40000m  541.5964m  196.9739m 
  119.50000m  541.7410m  196.8290m 
  119.60000m  541.8856m  196.6841m 
  119.70000m  542.0303m  196.5392m 
  119.80000m  542.1749m  196.3943m 
  119.90000m  542.3195m  196.2494m 
  120.00000m  542.4642m  196.1045m 
  120.10000m  542.6088m  195.9596m 
  120.20000m  542.7534m  195.8147m 
  120.30000m  542.8980m  195.6697m 
  120.40000m  543.0427m  195.5248m 
  120.50000m  543.1873m  195.3799m 
  120.60000m  543.3320m  195.2350m 
  120.70000m  543.4766m  195.0901m 
  120.80000m  543.6212m  194.9451m 
  120.90000m  543.7659m  194.8002m 
  121.00000m  543.9105m  194.6553m 
  121.10000m  544.0552m  194.5103m 
  121.20000m  544.1998m  194.3654m 
  121.30000m  544.3444m  194.2205m 
  121.40000m  544.4891m  194.0755m 
  121.50000m  544.6337m  193.9306m 
  121.60000m  544.7784m  193.7856m 
  121.70000m  544.9230m  193.6407m 
  121.80000m  545.0677m  193.4957m 
  121.90000m  545.2123m  193.3508m 
  122.00000m  545.3570m  193.2058m 
  122.10000m  545.5016m  193.0608m 
  122.20000m  545.6463m  192.9159m 
  122.30000m  545.7910m  192.7709m 
  122.40000m  545.9356m  192.6259m 
  122.50000m  546.0803m  192.4810m 
  122.60000m  546.2249m  192.3360m 
  122.70000m  546.3696m  192.1910m 
  122.80000m  546.5143m  192.0460m 
  122.90000m  546.6589m  191.9010m 
  123.00000m  546.8036m  191.7560m 
  123.10000m  546.9483m  191.6111m 
  123.20000m  547.0929m  191.4661m 
  123.30000m  547.2376m  191.3211m 
  123.40000m  547.3823m  191.1761m 
  123.50000m  547.5269m  191.0311m 
  123.60000m  547.6716m  190.8860m 
  123.70000m  547.8163m  190.7410m 
  123.80000m  547.9610m  190.5960m 
  123.90000m  548.1056m  190.4510m 
  124.00000m  548.2503m  190.3060m 
  124.10000m  548.3950m  190.1610m 
  124.20000m  548.5397m  190.0159m 
  124.30000m  548.6844m  189.8709m 
  124.40000m  548.8291m  189.7259m 
  124.50000m  548.9737m  189.5808m 
  124.60000m  549.1184m  189.4358m 
  124.70000m  549.2631m  189.2908m 
  124.80000m  549.4078m  189.1457m 
  124.90000m  549.5525m  189.0007m 
  125.00000m  549.6972m  188.8556m 
  125.10000m  549.8419m  188.7106m 
  125.20000m  549.9866m  188.5655m 
  125.30000m  550.1313m  188.4204m 
  125.40000m  550.2760m  188.2754m 
  125.50000m  550.4207m  188.1303m 
  125.60000m  550.5654m  187.9852m 
  125.70000m  550.7101m  187.8402m 
  125.80000m  550.8548m  187.6951m 
  125.90000m  550.9995m  187.5500m 
  126.00000m  551.1442m  187.4049m 
  126.10000m  551.2889m  187.2598m 
  126.20000m  551.4336m  187.1147m 
  126.30000m  551.5783m  186.9696m 
  126.40000m  551.7230m  186.8245m 
  126.50000m  551.8678m  186.6794m 
  126.60000m  552.0125m  186.5343m 
  126.70000m  552.1572m  186.3892m 
  126.80000m  552.3019m  186.2441m 
  126.90000m  552.4466m  186.0990m 
  127.00000m  552.5913m  185.9539m 
  127.10000m  552.7361m  185.8088m 
  127.20000m  552.8808m  185.6636m 
  127.30000m  553.0255m  185.5185m 
  127.40000m  553.1702m  185.3734m 
  127.50000m  553.3150m  185.2282m 
  127.60000m  553.4597m  185.0831m 
  127.70000m  553.6044m  184.9380m 
  127.80000m  553.7492m  184.7928m 
  127.90000m  553.8939m  184.6477m 
  128.00000m  554.0386m  184.5025m 
  128.10000m  554.1834m  184.3573m 
  128.20000m  554.3281m  184.2122m 
  128.30000m  554.4728m  184.0670m 
  128.40000m  554.6176m  183.9218m 
  128.50000m  554.7623m  183.7767m 
  128.60000m  554.9071m  183.6315m 
  128.70000m  555.0518m  183.4863m 
  128.80000m  555.1966m  183.3411m 
  128.90000m  555.3413m  183.1959m 
  129.00000m  555.4861m  183.0507m 
  129.10000m  555.6308m  182.9055m 
  129.20000m  555.7756m  182.7603m 
  129.30000m  555.9203m  182.6151m 
  129.40000m  556.0651m  182.4699m 
  129.50000m  556.2098m  182.3247m 
  129.60000m  556.3546m  182.1795m 
  129.70000m  556.4994m  182.0343m 
  129.80000m  556.6441m  181.8891m 
  129.90000m  556.7889m  181.7438m 
  130.00000m  556.9337m  181.5986m 
  130.10000m  557.0784m  181.4534m 
  130.20000m  557.2232m  181.3081m 
  130.30000m  557.3680m  181.1629m 
  130.40000m  557.5127m  181.0176m 
  130.50000m  557.6575m  180.8724m 
  130.60000m  557.8023m  180.7271m 
  130.70000m  557.9471m  180.5819m 
  130.80000m  558.0918m  180.4366m 
  130.90000m  558.2366m  180.2913m 
  131.00000m  558.3814m  180.1461m 
  131.10000m  558.5262m  180.0008m 
  131.20000m  558.6710m  179.8555m 
  131.30000m  558.8158m  179.7102m 
  131.40000m  558.9606m  179.5649m 
  131.50000m  559.1053m  179.4196m 
  131.60000m  559.2501m  179.2743m 
  131.70000m  559.3949m  179.1290m 
  131.80000m  559.5397m  178.9837m 
  131.90000m  559.6845m  178.8384m 
  132.00000m  559.8293m  178.6931m 
  132.10000m  559.9741m  178.5478m 
  132.20000m  560.1189m  178.4025m 
  132.30000m  560.2637m  178.2571m 
  132.40000m  560.4085m  178.1118m 
  132.50000m  560.5533m  177.9665m 
  132.60000m  560.6982m  177.8211m 
  132.70000m  560.8430m  177.6758m 
  132.80000m  560.9878m  177.5304m 
  132.90000m  561.1326m  177.3851m 
  133.00000m  561.2774m  177.2397m 
  133.10000m  561.4222m  177.0944m 
  133.20000m  561.5670m  176.9490m 
  133.30000m  561.7119m  176.8036m 
  133.40000m  561.8567m  176.6582m 
  133.50000m  562.0015m  176.5128m 
  133.60000m  562.1463m  176.3675m 
  133.70000m  562.2912m  176.2221m 
  133.80000m  562.4360m  176.0767m 
  133.90000m  562.5808m  175.9313m 
  134.00000m  562.7257m  175.7859m 
  134.10000m  562.8705m  175.6405m 
  134.20000m  563.0153m  175.4950m 
  134.30000m  563.1602m  175.3496m 
  134.40000m  563.3050m  175.2042m 
  134.50000m  563.4499m  175.0588m 
  134.60000m  563.5947m  174.9133m 
  134.70000m  563.7396m  174.7679m 
  134.80000m  563.8844m  174.6224m 
  134.90000m  564.0293m  174.4770m 
  135.00000m  564.1741m  174.3315m 
  135.10000m  564.3190m  174.1861m 
  135.20000m  564.4638m  174.0406m 
  135.30000m  564.6087m  173.8951m 
  135.40000m  564.7535m  173.7497m 
  135.50000m  564.8984m  173.6042m 
  135.60000m  565.0433m  173.4587m 
  135.70000m  565.1881m  173.3132m 
  135.80000m  565.3330m  173.1677m 
  135.90000m  565.4779m  173.0222m 
  136.00000m  565.6227m  172.8767m 
  136.10000m  565.7676m  172.7312m 
  136.20000m  565.9125m  172.5857m 
  136.30000m  566.0574m  172.4402m 
  136.40000m  566.2022m  172.2946m 
  136.50000m  566.3471m  172.1491m 
  136.60000m  566.4920m  172.0036m 
  136.70000m  566.6369m  171.8580m 
  136.80000m  566.7818m  171.7125m 
  136.90000m  566.9267m  171.5669m 
  137.00000m  567.0716m  171.4214m 
  137.10000m  567.2165m  171.2758m 
  137.20000m  567.3614m  171.1302m 
  137.30000m  567.5062m  170.9847m 
  137.40000m  567.6511m  170.8391m 
  137.50000m  567.7960m  170.6935m 
  137.60000m  567.9410m  170.5479m 
  137.70000m  568.0859m  170.4023m 
  137.80000m  568.2308m  170.2567m 
  137.90000m  568.3757m  170.1111m 
  138.00000m  568.5206m  169.9655m 
  138.10000m  568.6655m  169.8199m 
  138.20000m  568.8104m  169.6742m 
  138.30000m  568.9553m  169.5286m 
  138.40000m  569.1003m  169.3830m 
  138.50000m  569.2452m  169.2373m 
  138.60000m  569.3901m  169.0917m 
  138.70000m  569.5350m  168.9460m 
  138.80000m  569.6800m  168.8004m 
  138.90000m  569.8249m  168.6547m 
  139.00000m  569.9698m  168.5090m 
  139.10000m  570.1148m  168.3633m 
  139.20000m  570.2597m  168.2177m 
  139.30000m  570.4046m  168.0720m 
  139.40000m  570.5496m  167.9263m 
  139.50000m  570.6945m  167.7806m 
  139.60000m  570.8395m  167.6349m 
  139.70000m  570.9844m  167.4892m 
  139.80000m  571.1294m  167.3434m 
  139.90000m  571.2743m  167.1977m 
  140.00000m  571.4193m  167.0520m 
  140.10000m  571.5642m  166.9062m 
  140.20000m  571.7092m  166.7605m 
  140.30000m  571.8541m  166.6147m 
  140.40000m  571.9991m  166.4690m 
  140.50000m  572.1441m  166.3232m 
  140.60000m  572.2890m  166.1774m 
  140.70000m  572.4340m  166.0317m 
  140.80000m  572.5790m  165.8859m 
  140.90000m  572.7240m  165.7401m 
  141.00000m  572.8689m  165.5943m 
  141.10000m  573.0139m  165.4485m 
  141.20000m  573.1589m  165.3027m 
  141.30000m  573.3039m  165.1569m 
  141.40000m  573.4489m  165.0110m 
  141.50000m  573.5939m  164.8652m 
  141.60000m  573.7388m  164.7194m 
  141.70000m  573.8838m  164.5735m 
  141.80000m  574.0288m  164.4277m 
  141.90000m  574.1738m  164.2818m 
  142.00000m  574.3188m  164.1360m 
  142.10000m  574.4638m  163.9901m 
  142.20000m  574.6088m  163.8442m 
  142.30000m  574.7539m  163.6983m 
  142.40000m  574.8989m  163.5524m 
  142.50000m  575.0439m  163.4065m 
  142.60000m  575.1889m  163.2606m 
  142.70000m  575.3339m  163.1147m 
  142.80000m  575.4789m  162.9688m 
  142.90000m  575.6240m  162.8229m 
  143.00000m  575.7690m  162.6769m 
  143.10000m  575.9140m  162.5310m 
  143.20000m  576.0590m  162.3851m 
  143.30000m  576.2041m  162.2391m 
  143.40000m  576.3491m  162.0931m 
  143.50000m  576.4941m  161.9472m 
  143.60000m  576.6392m  161.8012m 
  143.70000m  576.7842m  161.6552m 
  143.80000m  576.9293m  161.5092m 
  143.90000m  577.0743m  161.3632m 
  144.00000m  577.2194m  161.2172m 
  144.10000m  577.3644m  161.0712m 
  144.20000m  577.5095m  160.9252m 
  144.30000m  577.6545m  160.7791m 
  144.40000m  577.7996m  160.6331m 
  144.50000m  577.9447m  160.4871m 
  144.60000m  578.0897m  160.3410m 
  144.70000m  578.2348m  160.1949m 
  144.80000m  578.3799m  160.0489m 
  144.90000m  578.5249m  159.9028m 
  145.00000m  578.6700m  159.7567m 
  145.10000m  578.8151m  159.6106m 
  145.20000m  578.9602m  159.4645m 
  145.30000m  579.1053m  159.3184m 
  145.40000m  579.2504m  159.1723m 
  145.50000m  579.3954m  159.0262m 
  145.60000m  579.5405m  158.8800m 
  145.70000m  579.6856m  158.7339m 
  145.80000m  579.8307m  158.5877m 
  145.90000m  579.9758m  158.4416m 
  146.00000m  580.1209m  158.2954m 
  146.10000m  580.2660m  158.1492m 
  146.20000m  580.4112m  158.0031m 
  146.30000m  580.5563m  157.8569m 
  146.40000m  580.7014m  157.7107m 
  146.50000m  580.8465m  157.5645m 
  146.60000m  580.9916m  157.4182m 
  146.70000m  581.1367m  157.2720m 
  146.80000m  581.2819m  157.1258m 
  146.90000m  581.4270m  156.9795m 
  147.00000m  581.5721m  156.8333m 
  147.10000m  581.7173m  156.6870m 
  147.20000m  581.8624m  156.5408m 
  147.30000m  582.0075m  156.3945m 
  147.40000m  582.1527m  156.2482m 
  147.50000m  582.2978m  156.1019m 
  147.60000m  582.4430m  155.9556m 
  147.70000m  582.5881m  155.8093m 
  147.80000m  582.7333m  155.6630m 
  147.90000m  582.8785m  155.5166m 
  148.00000m  583.0236m  155.3703m 
  148.10000m  583.1688m  155.2240m 
  148.20000m  583.3139m  155.0776m 
  148.30000m  583.4591m  154.9312m 
  148.40000m  583.6043m  154.7848m 
  148.50000m  583.7495m  154.6385m 
  148.60000m  583.8947m  154.4921m 
  148.70000m  584.0398m  154.3457m 
  148.80000m  584.1850m  154.1992m 
  148.90000m  584.3302m  154.0528m 
  149.00000m  584.4754m  153.9064m 
  149.10000m  584.6206m  153.7599m 
  149.20000m  584.7658m  153.6135m 
  149.30000m  584.9110m  153.4670m 
  149.40000m  585.0562m  153.3206m 
  149.50000m  585.2014m  153.1741m 
  149.60000m  585.3466m  153.0276m 
  149.70000m  585.4918m  152.8811m 
  149.80000m  585.6371m  152.7346m 
  149.90000m  585.7823m  152.5880m 
  150.00000m  585.9275m  152.4415m 
  150.10000m  586.0727m  152.2950m 
  150.20000m  586.2180m  152.1484m 
  150.30000m  586.3632m  152.0018m 
  150.40000m  586.5084m  151.8553m 
  150.50000m  586.6537m  151.7087m 
  150.60000m  586.7989m  151.5621m 
  150.70000m  586.9442m  151.4155m 
  150.80000m  587.0894m  151.2689m 
  150.90000m  587.2347m  151.1222m 
  151.00000m  587.3799m  150.9756m 
  151.10000m  587.5252m  150.8290m 
  151.20000m  587.6705m  150.6823m 
  151.30000m  587.8157m  150.5356m 
  151.40000m  587.9610m  150.3889m 
  151.50000m  588.1063m  150.2423m 
  151.60000m  588.2516m  150.0956m 
  151.70000m  588.3968m  149.9488m 
  151.80000m  588.5421m  149.8021m 
  151.90000m  588.6874m  149.6554m 
  152.00000m  588.8327m  149.5086m 
  152.10000m  588.9780m  149.3619m 
  152.20000m  589.1233m  149.2151m 
  152.30000m  589.2686m  149.0683m 
  152.40000m  589.4139m  148.9215m 
  152.50000m  589.5592m  148.7747m 
  152.60000m  589.7045m  148.6279m 
  152.70000m  589.8499m  148.4811m 
  152.80000m  589.9952m  148.3342m 
  152.90000m  590.1405m  148.1874m 
  153.00000m  590.2858m  148.0405m 
  153.10000m  590.4312m  147.8937m 
  153.20000m  590.5765m  147.7468m 
  153.30000m  590.7218m  147.5999m 
  153.40000m  590.8672m  147.4530m 
  153.50000m  591.0125m  147.3060m 
  153.60000m  591.1579m  147.1591m 
  153.70000m  591.3032m  147.0122m 
  153.80000m  591.4486m  146.8652m 
  153.90000m  591.5940m  146.7182m 
  154.00000m  591.7393m  146.5712m 
  154.10000m  591.8847m  146.4242m 
  154.20000m  592.0301m  146.2772m 
  154.30000m  592.1754m  146.1302m 
  154.40000m  592.3208m  145.9832m 
  154.50000m  592.4662m  145.8361m 
  154.60000m  592.6116m  145.6891m 
  154.70000m  592.7570m  145.5420m 
  154.80000m  592.9024m  145.3949m 
  154.90000m  593.0478m  145.2478m 
  155.00000m  593.1932m  145.1007m 
  155.10000m  593.3386m  144.9536m 
  155.20000m  593.4840m  144.8064m 
  155.30000m  593.6295m  144.6593m 
  155.40000m  593.7749m  144.5121m 
  155.50000m  593.9203m  144.3649m 
  155.60000m  594.0657m  144.2177m 
  155.70000m  594.2112m  144.0705m 
  155.80000m  594.3566m  143.9233m 
  155.90000m  594.5021m  143.7761m 
  156.00000m  594.6475m  143.6288m 
  156.10000m  594.7929m  143.4816m 
  156.20000m  594.9384m  143.3343m 
  156.30000m  595.0839m  143.1870m 
  156.40000m  595.2293m  143.0397m 
  156.50000m  595.3748m  142.8924m 
  156.60000m  595.5203m  142.7450m 
  156.70000m  595.6657m  142.5977m 
  156.80000m  595.8112m  142.4503m 
  156.90000m  595.9567m  142.3030m 
  157.00000m  596.1022m  142.1556m 
  157.10000m  596.2477m  142.0082m 
  157.20000m  596.3932m  141.8607m 
  157.30000m  596.5387m  141.7133m 
  157.40000m  596.6842m  141.5658m 
  157.50000m  596.8297m  141.4184m 
  157.60000m  596.9752m  141.2709m 
  157.70000m  597.1208m  141.1234m 
  157.80000m  597.2663m  140.9759m 
  157.90000m  597.4118m  140.8284m 
  158.00000m  597.5574m  140.6808m 
  158.10000m  597.7029m  140.5333m 
  158.20000m  597.8484m  140.3857m 
  158.30000m  597.9940m  140.2381m 
  158.40000m  598.1396m  140.0905m 
  158.50000m  598.2851m  139.9429m 
  158.60000m  598.4307m  139.7952m 
  158.70000m  598.5762m  139.6476m 
  158.80000m  598.7218m  139.4999m 
  158.90000m  598.8674m  139.3522m 
  159.00000m  599.0130m  139.2045m 
  159.10000m  599.1586m  139.0568m 
  159.20000m  599.3042m  138.9091m 
  159.30000m  599.4498m  138.7613m 
  159.40000m  599.5954m  138.6136m 
  159.50000m  599.7410m  138.4658m 
  159.60000m  599.8866m  138.3180m 
  159.70000m  600.0322m  138.1701m 
  159.80000m  600.1778m  138.0223m 
  159.90000m  600.3234m  137.8745m 
  160.00000m  600.4691m  137.7266m 
  160.10000m  600.6147m  137.5787m 
  160.20000m  600.7604m  137.4308m 
  160.30000m  600.9060m  137.2829m 
  160.40000m  601.0517m  137.1349m 
  160.50000m  601.1973m  136.9870m 
  160.60000m  601.3430m  136.8390m 
  160.70000m  601.4887m  136.6910m 
  160.80000m  601.6343m  136.5430m 
  160.90000m  601.7800m  136.3949m 
  161.00000m  601.9257m  136.2469m 
  161.10000m  602.0714m  136.0988m 
  161.20000m  602.2171m  135.9507m 
  161.30000m  602.3628m  135.8026m 
  161.40000m  602.5085m  135.6545m 
  161.50000m  602.6542m  135.5064m 
  161.60000m  602.7999m  135.3582m 
  161.70000m  602.9456m  135.2100m 
  161.80000m  603.0914m  135.0618m 
  161.90000m  603.2371m  134.9136m 
  162.00000m  603.3828m  134.7654m 
  162.10000m  603.5286m  134.6171m 
  162.20000m  603.6743m  134.4688m 
  162.30000m  603.8201m  134.3205m 
  162.40000m  603.9658m  134.1722m 
  162.50000m  604.1116m  134.0239m 
  162.60000m  604.2574m  133.8755m 
  162.70000m  604.4032m  133.7271m 
  162.80000m  604.5489m  133.5787m 
  162.90000m  604.6947m  133.4303m 
  163.00000m  604.8405m  133.2819m 
  163.10000m  604.9863m  133.1334m 
  163.20000m  605.1321m  132.9849m 
  163.30000m  605.2780m  132.8364m 
  163.40000m  605.4238m  132.6879m 
  163.50000m  605.5696m  132.5394m 
  163.60000m  605.7154m  132.3908m 
  163.70000m  605.8613m  132.2422m 
  163.80000m  606.0071m  132.0936m 
  163.90000m  606.1530m  131.9450m 
  164.00000m  606.2988m  131.7963m 
  164.10000m  606.4447m  131.6477m 
  164.20000m  606.5906m  131.4990m 
  164.30000m  606.7364m  131.3502m 
  164.40000m  606.8823m  131.2015m 
  164.50000m  607.0282m  131.0527m 
  164.60000m  607.1741m  130.9040m 
  164.70000m  607.3200m  130.7551m 
  164.80000m  607.4659m  130.6063m 
  164.90000m  607.6118m  130.4575m 
  165.00000m  607.7577m  130.3086m 
  165.10000m  607.9037m  130.1597m 
  165.20000m  608.0496m  130.0108m 
  165.30000m  608.1955m  129.8618m 
  165.40000m  608.3415m  129.7128m 
  165.50000m  608.4874m  129.5638m 
  165.60000m  608.6334m  129.4148m 
  165.70000m  608.7794m  129.2658m 
  165.80000m  608.9253m  129.1167m 
  165.90000m  609.0713m  128.9676m 
  166.00000m  609.2173m  128.8185m 
  166.10000m  609.3633m  128.6694m 
  166.20000m  609.5093m  128.5202m 
  166.30000m  609.6553m  128.3710m 
  166.40000m  609.8013m  128.2218m 
  166.50000m  609.9473m  128.0726m 
  166.60000m  610.0933m  127.9233m 
  166.70000m  610.2394m  127.7740m 
  166.80000m  610.3854m  127.6247m 
  166.90000m  610.5315m  127.4753m 
  167.00000m  610.6775m  127.3260m 
  167.10000m  610.8236m  127.1766m 
  167.20000m  610.9697m  127.0271m 
  167.30000m  611.1157m  126.8777m 
  167.40000m  611.2618m  126.7282m 
  167.50000m  611.4079m  126.5787m 
  167.60000m  611.5540m  126.4292m 
  167.70000m  611.7001m  126.2796m 
  167.80000m  611.8462m  126.1300m 
  167.90000m  611.9924m  125.9804m 
  168.00000m  612.1385m  125.8308m 
  168.10000m  612.2846m  125.6811m 
  168.20000m  612.4308m  125.5314m 
  168.30000m  612.5769m  125.3817m 
  168.40000m  612.7231m  125.2320m 
  168.50000m  612.8693m  125.0822m 
  168.60000m  613.0154m  124.9324m 
  168.70000m  613.1616m  124.7825m 
  168.80000m  613.3078m  124.6327m 
  168.90000m  613.4540m  124.4828m 
  169.00000m  613.6002m  124.3328m 
  169.10000m  613.7464m  124.1829m 
  169.20000m  613.8927m  124.0329m 
  169.30000m  614.0389m  123.8829m 
  169.40000m  614.1851m  123.7328m 
  169.50000m  614.3314m  123.5828m 
  169.60000m  614.4776m  123.4326m 
  169.70000m  614.6239m  123.2825m 
  169.80000m  614.7702m  123.1323m 
  169.90000m  614.9165m  122.9821m 
  170.00000m  615.0627m  122.8319m 
  170.10000m  615.2090m  122.6816m 
  170.20000m  615.3554m  122.5314m 
  170.30000m  615.5017m  122.3810m 
  170.40000m  615.6480m  122.2307m 
  170.50000m  615.7943m  122.0803m 
  170.60000m  615.9407m  121.9299m 
  170.70000m  616.0870m  121.7794m 
  170.80000m  616.2334m  121.6289m 
  170.90000m  616.3797m  121.4784m 
  171.00000m  616.5261m  121.3278m 
  171.10000m  616.6725m  121.1772m 
  171.20000m  616.8189m  121.0266m 
  171.30000m  616.9653m  120.8760m 
  171.40000m  617.1117m  120.7253m 
  171.50000m  617.2581m  120.5745m 
  171.60000m  617.4046m  120.4238m 
  171.70000m  617.5510m  120.2730m 
  171.80000m  617.6975m  120.1221m 
  171.90000m  617.8439m  119.9713m 
  172.00000m  617.9904m  119.8204m 
  172.10000m  618.1369m  119.6694m 
  172.20000m  618.2834m  119.5185m 
  172.30000m  618.4299m  119.3675m 
  172.40000m  618.5764m  119.2164m 
  172.50000m  618.7229m  119.0653m 
  172.60000m  618.8694m  118.9142m 
  172.70000m  619.0159m  118.7631m 
  172.80000m  619.1625m  118.6119m 
  172.90000m  619.3090m  118.4606m 
  173.00000m  619.4556m  118.3094m 
  173.10000m  619.6022m  118.1580m 
  173.20000m  619.7488m  118.0067m 
  173.30000m  619.8954m  117.8553m 
  173.40000m  620.0420m  117.7039m 
  173.50000m  620.1886m  117.5524m 
  173.60000m  620.3352m  117.4009m 
  173.70000m  620.4819m  117.2494m 
  173.80000m  620.6285m  117.0978m 
  173.90000m  620.7752m  116.9462m 
  174.00000m  620.9218m  116.7945m 
  174.10000m  621.0685m  116.6428m 
  174.20000m  621.2152m  116.4911m 
  174.30000m  621.3619m  116.3393m 
  174.40000m  621.5086m  116.1874m 
  174.50000m  621.6554m  116.0356m 
  174.60000m  621.8021m  115.8837m 
  174.70000m  621.9488m  115.7317m 
  174.80000m  622.0956m  115.5797m 
  174.90000m  622.2424m  115.4277m 
  175.00000m  622.3891m  115.2756m 
  175.10000m  622.5359m  115.1234m 
  175.20000m  622.6827m  114.9713m 
  175.30000m  622.8295m  114.8191m 
  175.40000m  622.9764m  114.6668m 
  175.50000m  623.1232m  114.5145m 
  175.60000m  623.2701m  114.3621m 
  175.70000m  623.4169m  114.2097m 
  175.80000m  623.5638m  114.0573m 
  175.90000m  623.7107m  113.9048m 
  176.00000m  623.8576m  113.7523m 
  176.10000m  624.0045m  113.5997m 
  176.20000m  624.1514m  113.4471m 
  176.30000m  624.2983m  113.2944m 
  176.40000m  624.4453m  113.1417m 
  176.50000m  624.5922m  112.9889m 
  176.60000m  624.7392m  112.8361m 
  176.70000m  624.8862m  112.6832m 
  176.80000m  625.0332m  112.5303m 
  176.90000m  625.1802m  112.3774m 
  177.00000m  625.3272m  112.2244m 
  177.10000m  625.4742m  112.0713m 
  177.20000m  625.6213m  111.9182m 
  177.30000m  625.7683m  111.7650m 
  177.40000m  625.9154m  111.6118m 
  177.50000m  626.0625m  111.4585m 
  177.60000m  626.2096m  111.3052m 
  177.70000m  626.3567m  111.1519m 
  177.80000m  626.5038m  110.9984m 
  177.90000m  626.6510m  110.8450m 
  178.00000m  626.7981m  110.6914m 
  178.10000m  626.9453m  110.5379m 
  178.20000m  627.0925m  110.3842m 
  178.30000m  627.2397m  110.2305m 
  178.40000m  627.3869m  110.0768m 
  178.50000m  627.5341m  109.9230m 
  178.60000m  627.6813m  109.7692m 
  178.70000m  627.8286m  109.6152m 
  178.80000m  627.9758m  109.4613m 
  178.90000m  628.1231m  109.3073m 
  179.00000m  628.2704m  109.1532m 
  179.10000m  628.4177m  108.9991m 
  179.20000m  628.5650m  108.8449m 
  179.30000m  628.7124m  108.6906m 
  179.40000m  628.8597m  108.5363m 
  179.50000m  629.0071m  108.3820m 
  179.60000m  629.1545m  108.2275m 
  179.70000m  629.3019m  108.0730m 
  179.80000m  629.4493m  107.9185m 
  179.90000m  629.5967m  107.7639m 
  180.00000m  629.7441m  107.6092m 
  180.10000m  629.8916m  107.4545m 
  180.20000m  630.0391m  107.2997m 
  180.30000m  630.1866m  107.1449m 
  180.40000m  630.3341m  106.9900m 
  180.50000m  630.4816m  106.8350m 
  180.60000m  630.6291m  106.6800m 
  180.70000m  630.7767m  106.5249m 
  180.80000m  630.9243m  106.3697m 
  180.90000m  631.0718m  106.2145m 
  181.00000m  631.2194m  106.0592m 
  181.10000m  631.3671m  105.9038m 
  181.20000m  631.5147m  105.7484m 
  181.30000m  631.6623m  105.5929m 
  181.40000m  631.8100m  105.4373m 
  181.50000m  631.9577m  105.2817m 
  181.60000m  632.1054m  105.1260m 
  181.70000m  632.2531m  104.9702m 
  181.80000m  632.4009m  104.8144m 
  181.90000m  632.5486m  104.6585m 
  182.00000m  632.6964m  104.5025m 
  182.10000m  632.8442m  104.3465m 
  182.20000m  632.9920m  104.1904m 
  182.30000m  633.1398m  104.0342m 
  182.40000m  633.2877m  103.8779m 
  182.50000m  633.4355m  103.7216m 
  182.60000m  633.5834m  103.5652m 
  182.70000m  633.7313m  103.4087m 
  182.80000m  633.8792m  103.2521m 
  182.90000m  634.0272m  103.0955m 
  183.00000m  634.1751m  102.9388m 
  183.10000m  634.3231m  102.7820m 
  183.20000m  634.4711m  102.6252m 
  183.30000m  634.6191m  102.4683m 
  183.40000m  634.7672m  102.3112m 
  183.50000m  634.9152m  102.1542m 
  183.60000m  635.0633m  101.9970m 
  183.70000m  635.2114m  101.8397m 
  183.80000m  635.3595m  101.6824m 
  183.90000m  635.5076m  101.5250m 
  184.00000m  635.6558m  101.3675m 
  184.10000m  635.8040m  101.2100m 
  184.20000m  635.9522m  101.0523m 
  184.30000m  636.1004m  100.8946m 
  184.40000m  636.2486m  100.7368m 
  184.50000m  636.3969m  100.5789m 
  184.60000m  636.5452m  100.4209m 
  184.70000m  636.6935m  100.2628m 
  184.80000m  636.8418m  100.1047m 
  184.90000m  636.9901m   99.9464m 
  185.00000m  637.1385m   99.7881m 
  185.10000m  637.2869m   99.6297m 
  185.20000m  637.4353m   99.4712m 
  185.30000m  637.5837m   99.3126m 
  185.40000m  637.7322m   99.1539m 
  185.50000m  637.8807m   98.9951m 
  185.60000m  638.0292m   98.8362m 
  185.70000m  638.1777m   98.6773m 
  185.80000m  638.3262m   98.5182m 
  185.90000m  638.4748m   98.3591m 
  186.00000m  638.6234m   98.1998m 
  186.10000m  638.7720m   98.0405m 
  186.20000m  638.9207m   97.8811m 
  186.30000m  639.0693m   97.7215m 
  186.40000m  639.2180m   97.5619m 
  186.50000m  639.3667m   97.4022m 
  186.60000m  639.5155m   97.2424m 
  186.70000m  639.6642m   97.0825m 
  186.80000m  639.8130m   96.9224m 
  186.90000m  639.9618m   96.7623m 
  187.00000m  640.1107m   96.6021m 
  187.10000m  640.2596m   96.4418m 
  187.20000m  640.4084m   96.2814m 
  187.30000m  640.5574m   96.1208m 
  187.40000m  640.7063m   95.9602m 
  187.50000m  640.8553m   95.7994m 
  187.60000m  641.0043m   95.6386m 
  187.70000m  641.1533m   95.4776m 
  187.80000m  641.3024m   95.3166m 
  187.90000m  641.4514m   95.1554m 
  188.00000m  641.6005m   94.9941m 
  188.10000m  641.7497m   94.8327m 
  188.20000m  641.8988m   94.6712m 
  188.30000m  642.0480m   94.5096m 
  188.40000m  642.1972m   94.3479m 
  188.50000m  642.3465m   94.1860m 
  188.60000m  642.4958m   94.0241m 
  188.70000m  642.6451m   93.8620m 
  188.80000m  642.7944m   93.6998m 
  188.90000m  642.9438m   93.5375m 
  189.00000m  643.0932m   93.3751m 
  189.10000m  643.2426m   93.2125m 
  189.20000m  643.3920m   93.0499m 
  189.30000m  643.5415m   92.8871m 
  189.40000m  643.6910m   92.7242m 
  189.50000m  643.8406m   92.5611m 
  189.60000m  643.9902m   92.3980m 
  189.70000m  644.1398m   92.2347m 
  189.80000m  644.2894m   92.0713m 
  189.90000m  644.4391m   91.9077m 
  190.00000m  644.5888m   91.7440m 
  190.10000m  644.7385m   91.5802m 
  190.20000m  644.8883m   91.4163m 
  190.30000m  645.0381m   91.2522m 
  190.40000m  645.1880m   91.0880m 
  190.50000m  645.3378m   90.9237m 
  190.60000m  645.4877m   90.7592m 
  190.70000m  645.6377m   90.5946m 
  190.80000m  645.7876m   90.4299m 
  190.90000m  645.9377m   90.2650m 
  191.00000m  646.0877m   90.1000m 
  191.10000m  646.2378m   89.9348m 
  191.20000m  646.3879m   89.7695m 
  191.30000m  646.5380m   89.6041m 
  191.40000m  646.6882m   89.4385m 
  191.50000m  646.8385m   89.2728m 
  191.60000m  646.9887m   89.1069m 
  191.70000m  647.1390m   88.9409m 
  191.80000m  647.2894m   88.7747m 
  191.90000m  647.4397m   88.6084m 
  192.00000m  647.5902m   88.4419m 
  192.10000m  647.7406m   88.2752m 
  192.20000m  647.8911m   88.1084m 
  192.30000m  648.0416m   87.9415m 
  192.40000m  648.1922m   87.7744m 
  192.50000m  648.3428m   87.6071m 
  192.60000m  648.4935m   87.4397m 
  192.70000m  648.6442m   87.2721m 
  192.80000m  648.7949m   87.1044m 
  192.90000m  648.9457m   86.9365m 
  193.00000m  649.0965m   86.7684m 
  193.10000m  649.2473m   86.6001m 
  193.20000m  649.3982m   86.4317m 
  193.30000m  649.5492m   86.2632m 
  193.40000m  649.7002m   86.0944m 
  193.50000m  649.8512m   85.9255m 
  193.60000m  650.0023m   85.7564m 
  193.70000m  650.1534m   85.5871m 
  193.80000m  650.3046m   85.4176m 
  193.90000m  650.4558m   85.2480m 
  194.00000m  650.6071m   85.0782m 
  194.10000m  650.7584m   84.9082m 
  194.20000m  650.9097m   84.7380m 
  194.30000m  651.0611m   84.5677m 
  194.40000m  651.2126m   84.3971m 
  194.50000m  651.3641m   84.2264m 
  194.60000m  651.5156m   84.0554m 
  194.70000m  651.6672m   83.8843m 
  194.80000m  651.8189m   83.7130m 
  194.90000m  651.9706m   83.5415m 
  195.00000m  652.1223m   83.3698m 
  195.10000m  652.2741m   83.1979m 
  195.20000m  652.4259m   83.0257m 
  195.30000m  652.5778m   82.8534m 
  195.40000m  652.7298m   82.6809m 
  195.50000m  652.8818m   82.5082m 
  195.60000m  653.0339m   82.3353m 
  195.70000m  653.1860m   82.1621m 
  195.80000m  653.3382m   81.9887m 
  195.90000m  653.4904m   81.8152m 
  196.00000m  653.6427m   81.6414m 
  196.10000m  653.7950m   81.4674m 
  196.20000m  653.9474m   81.2931m 
  196.30000m  654.0999m   81.1187m 
  196.40000m  654.2524m   80.9440m 
  196.50000m  654.4049m   80.7691m 
  196.60000m  654.5576m   80.5940m 
  196.70000m  654.7103m   80.4186m 
  196.80000m  654.8630m   80.2430m 
  196.90000m  655.0158m   80.0672m 
  197.00000m  655.1687m   79.8911m 
  197.10000m  655.3216m   79.7148m 
  197.20000m  655.4746m   79.5382m 
  197.30000m  655.6277m   79.3614m 
  197.40000m  655.7808m   79.1844m 
  197.50000m  655.9340m   79.0071m 
  197.60000m  656.0873m   78.8296m 
  197.70000m  656.2406m   78.6518m 
  197.80000m  656.3940m   78.4737m 
  197.90000m  656.5475m   78.2954m 
  198.00000m  656.7010m   78.1168m 
  198.10000m  656.8547m   77.9379m 
  198.20000m  657.0083m   77.7588m 
  198.30000m  657.1621m   77.5794m 
  198.40000m  657.3159m   77.3998m 
  198.50000m  657.4698m   77.2198m 
  198.60000m  657.6238m   77.0396m 
  198.70000m  657.7778m   76.8591m 
  198.80000m  657.9319m   76.6783m 
  198.90000m  658.0861m   76.4973m 
  199.00000m  658.2404m   76.3159m 
  199.10000m  658.3948m   76.1343m 
  199.20000m  658.5492m   75.9523m 
  199.30000m  658.7037m   75.7701m 
  199.40000m  658.8583m   75.5875m 
  199.50000m  659.0130m   75.4047m 
  199.60000m  659.1678m   75.2215m 
  199.70000m  659.3226m   75.0380m 
  199.80000m  659.4775m   74.8542m 
  199.90000m  659.6326m   74.6701m 
  200.00000m  659.7877m   74.4857m 
  200.10000m  659.9429m   74.3009m 
  200.20000m  660.0981m   74.1158m 
  200.30000m  660.2535m   73.9304m 
  200.40000m  660.4090m   73.7446m 
  200.50000m  660.5646m   73.5585m 
  200.60000m  660.7202m   73.3721m 
  200.70000m  660.8760m   73.1853m 
  200.80000m  661.0318m   72.9982m 
  200.90000m  661.1878m   72.8107m 
  201.00000m  661.3438m   72.6228m 
  201.10000m  661.5000m   72.4346m 
  201.20000m  661.6562m   72.2460m 
  201.30000m  661.8126m   72.0570m 
  201.40000m  661.9690m   71.8677m 
  201.50000m  662.1256m   71.6780m 
  201.60000m  662.2823m   71.4878m 
  201.70000m  662.4390m   71.2974m 
  201.80000m  662.5959m   71.1065m 
  201.90000m  662.7529m   70.9152m 
  202.00000m  662.9101m   70.7235m 
  202.10000m  663.0673m   70.5314m 
  202.20000m  663.2246m   70.3389m 
  202.30000m  663.3821m   70.1459m 
  202.40000m  663.5397m   69.9526m 
  202.50000m  663.6974m   69.7588m 
  202.60000m  663.8553m   69.5645m 
  202.70000m  664.0132m   69.3699m 
  202.80000m  664.1713m   69.1748m 
  202.90000m  664.3295m   68.9792m 
  203.00000m  664.4879m   68.7832m 
  203.10000m  664.6464m   68.5867m 
  203.20000m  664.8050m   68.3898m 
  203.30000m  664.9637m   68.1924m 
  203.40000m  665.1226m   67.9945m 
  203.50000m  665.2817m   67.7961m 
  203.60000m  665.4409m   67.5972m 
  203.70000m  665.6002m   67.3979m 
  203.80000m  665.7597m   67.1980m 
  203.90000m  665.9193m   66.9976m 
  204.00000m  666.0791m   66.7967m 
  204.10000m  666.2390m   66.5953m 
  204.20000m  666.3991m   66.3933m 
  204.30000m  666.5594m   66.1908m 
  204.40000m  666.7198m   65.9878m 
  204.50000m  666.8804m   65.7841m 
  204.60000m  667.0412m   65.5800m 
  204.70000m  667.2021m   65.3752m 
  204.80000m  667.3632m   65.1699m 
  204.90000m  667.5245m   64.9640m 
  205.00000m  667.6859m   64.7575m 
  205.10000m  667.8476m   64.5504m 
  205.20000m  668.0094m   64.3427m 
  205.30000m  668.1715m   64.1343m 
  205.40000m  668.3337m   63.9254m 
  205.50000m  668.4961m   63.7157m 
  205.60000m  668.6587m   63.5055m 
  205.70000m  668.8215m   63.2945m 
  205.80000m  668.9846m   63.0829m 
  205.90000m  669.1478m   62.8707m 
  206.00000m  669.3113m   62.6577m 
  206.10000m  669.4750m   62.4440m 
  206.20000m  669.6389m   62.2296m 
  206.30000m  669.8030m   62.0145m 
  206.40000m  669.9674m   61.7987m 
  206.50000m  670.1320m   61.5821m 
  206.60000m  670.2969m   61.3647m 
  206.70000m  670.4620m   61.1466m 
  206.80000m  670.6274m   60.9277m 
  206.90000m  670.7930m   60.7079m 
  207.00000m  670.9589m   60.4874m 
  207.10000m  671.1250m   60.2660m 
  207.20000m  671.2914m   60.0438m 
  207.30000m  671.4582m   59.8207m 
  207.40000m  671.6252m   59.5968m 
  207.50000m  671.7925m   59.3719m 
  207.60000m  671.9600m   59.1462m 
  207.70000m  672.1280m   58.9195m 
  207.80000m  672.2962m   58.6919m 
  207.90000m  672.4647m   58.4634m 
  208.00000m  672.6336m   58.2338m 
  208.10000m  672.8028m   58.0033m 
  208.20000m  672.9723m   57.7717m 
  208.30000m  673.1422m   57.5391m 
  208.40000m  673.3125m   57.3055m 
  208.50000m  673.4831m   57.0707m 
  208.60000m  673.6541m   56.8349m 
  208.70000m  673.8255m   56.5979m 
  208.80000m  673.9973m   56.3598m 
  208.90000m  674.1695m   56.1206m 
  209.00000m  674.3421m   55.8801m 
  209.10000m  674.5152m   55.6384m 
  209.20000m  674.6887m   55.3954m 
  209.30000m  674.8626m   55.1512m 
  209.40000m  675.0371m   54.9056m 
  209.50000m  675.2120m   54.6587m 
  209.60000m  675.3873m   54.4105m 
  209.70000m  675.5632m   54.1608m 
  209.80000m  675.7397m   53.9097m 
  209.90000m  675.9166m   53.6571m 
  210.00000m  676.0941m   53.4029m 
  210.10000m  676.2722m   53.1473m 
  210.20000m  676.4509m   52.8900m 
  210.30000m  676.6301m   52.6311m 
  210.40000m  676.8100m   52.3705m 
  210.50000m  676.9906m   52.1081m 
  210.60000m  677.1718m   51.8440m 
  210.70000m  677.3536m   51.5780m 
  210.80000m  677.5362m   51.3102m 
  210.90000m  677.7196m   51.0404m 
  211.00000m  677.9037m   50.7686m 
  211.10000m  678.0886m   50.4948m 
  211.20000m  678.2743m   50.2188m 
  211.30000m  678.4608m   49.9406m 
  211.40000m  678.6482m   49.6601m 
  211.50000m  678.8366m   49.3773m 
  211.60000m  679.0259m   49.0921m 
  211.70000m  679.2161m   48.8043m 
  211.80000m  679.4074m   48.5139m 
  211.90000m  679.5998m   48.2208m 
  212.00000m  679.7933m   47.9249m 
  212.10000m  679.9879m   47.6260m 
  212.20000m  680.1838m   47.3241m 
  212.30000m  680.3810m   47.0191m 
  212.40000m  680.5794m   46.7107m 
  212.50000m  680.7793m   46.3989m 
  212.60000m  680.9807m   46.0835m 
  212.70000m  681.1835m   45.7642m 
  212.80000m  681.3880m   45.4411m 
  212.90000m  681.5943m   45.1137m 
  213.00000m  681.8023m   44.7820m 
  213.10000m  682.0122m   44.4457m 
  213.20000m  682.2242m   44.1045m 
  213.30000m  682.4383m   43.7582m 
  213.40000m  682.6547m   43.4065m 
  213.50000m  682.8736m   43.0489m 
  213.60000m  683.0951m   42.6852m 
  213.70000m  683.3193m   42.3149m 
  213.80000m  683.5466m   41.9376m 
  213.90000m  683.7771m   41.5527m 
  214.00000m  684.0112m   41.1596m 
  214.10000m  684.2491m   40.7577m 
  214.20000m  684.4912m   40.3461m 
  214.30000m  684.7378m   39.9241m 
  214.40000m  684.9896m   39.4905m 
  214.50000m  685.2469m   39.0441m 
  214.60000m  685.5106m   38.5834m 
  214.70000m  685.7814m   38.1067m 
  214.80000m  686.0602m   37.6119m 
  214.90000m  686.3485m   37.0961m 
  215.00000m  686.6476m   36.5560m 
  215.10000m  686.9598m   35.9871m 
  215.20000m  687.2878m   35.3832m 
  215.30000m  687.6357m   34.7358m 
  215.40000m  688.0093m   34.0319m 
  215.50000m  688.4184m   33.2506m 
  215.60000m  688.8808m   32.3537m 
  215.70000m  689.4366m   31.2547m 
  215.80000m  690.2419m   29.6189m 
  215.90000m   22.5825n  700.0000m 
  216.00000m   22.5953n  700.0000m 
  216.10000m   22.6081n  700.0000m 
  216.20000m   22.6208n  700.0000m 
  216.30000m   22.6336n  700.0000m 
  216.40000m   22.6463n  700.0000m 
  216.50000m   22.6591n  700.0000m 
  216.60000m   22.6719n  700.0000m 
  216.70000m   22.6846n  700.0000m 
  216.80000m   22.6974n  700.0000m 
  216.90000m   22.7102n  700.0000m 
  217.00000m   22.7229n  700.0000m 
  217.10000m   22.7357n  700.0000m 
[...]
  657.30000m  385.7381n  699.9999m 
  657.40000m  386.0733n  699.9999m 
  657.50000m  386.4088n  699.9999m 
  657.60000m  386.7447n  699.9999m 
  657.70000m  387.0809n  699.9999m 
  657.80000m  387.4174n  699.9999m 
  657.90000m  387.7542n  699.9999m 
  658.00000m  388.0914n  699.9999m 
  658.10000m  388.4289n  699.9999m 
  658.20000m  388.7668n  699.9999m 
  658.30000m  389.1050n  699.9999m 
  658.40000m  389.4435n  699.9999m 
  658.50000m  389.7823n  699.9999m 
  658.60000m  390.1215n  699.9999m 
  658.70000m  390.4610n  699.9999m 
  658.80000m  390.8008n  699.9999m 
  658.90000m  391.1410n  699.9999m 
  659.00000m  391.4815n  699.9999m 
  659.10000m  391.8223n  699.9999m 
  659.20000m  392.1635n  699.9999m 
  659.30000m  392.5050n  699.9999m 
  659.40000m  392.8468n  699.9999m 
  659.50000m  393.1890n  699.9999m 
  659.60000m  393.5315n  699.9999m 
  659.70000m  393.8744n  699.9999m 
  659.80000m  394.2175n  699.9999m 
  659.90000m  394.5611n  699.9999m 
  660.00000m  394.9049n  699.9999m 
  660.10000m  395.2491n  699.9999m 
  660.20000m  395.5936n  699.9999m 
  660.30000m  395.9385n  699.9999m 
  660.40000m  396.2837n  699.9999m 
  660.50000m  396.6293n  699.9999m 
  660.60000m  396.9752n  699.9999m 
  660.70000m  397.3214n  699.9999m 
  660.80000m  397.6680n  699.9999m 
  660.90000m  398.0149n  699.9999m 
  661.00000m  398.3621n  699.9999m 
  661.10000m  398.7097n  699.9999m 
  661.20000m  399.0576n  699.9999m 
  661.30000m  399.4059n  699.9999m 
  661.40000m  399.7545n  699.9999m 
  661.50000m  400.1035n  699.9999m 
  661.60000m  400.4528n  699.9999m 
  661.70000m  400.8024n  699.9999m 
  661.80000m  401.1524n  699.9999m 
  661.90000m  401.5027n  699.9999m 
  662.00000m  401.8534n  699.9999m 
  662.10000m  402.2044n  699.9999m 
  662.20000m  402.5558n  699.9999m 
  662.30000m  402.9075n  699.9999m 
  662.40000m  403.2596n  699.9999m 
  662.50000m  403.6120n  699.9999m 
  662.60000m  403.9647n  699.9999m 
  662.70000m  404.3178n  699.9999m 
  662.80000m  404.6713n  699.9999m 
  662.90000m  405.0250n  699.9999m 
  663.00000m  405.3792n  699.9999m 
  663.10000m  405.7337n  699.9999m 
  663.20000m  406.0885n  699.9999m 
  663.30000m  406.4437n  699.9999m 
  663.40000m  406.7992n  699.9999m 
  663.50000m  407.1551n  699.9999m 
  663.60000m  407.5113n  699.9999m 
  663.70000m  407.8679n  699.9999m 
  663.80000m  408.2248n  699.9999m 
  663.90000m  408.5821n  699.9999m 
  664.00000m  408.9398n  699.9999m 
  664.10000m  409.2978n  699.9999m 
  664.20000m  409.6561n  699.9999m 
  664.30000m  410.0148n  699.9999m 
  664.40000m  410.3738n  699.9999m 
  664.50000m  410.7332n  699.9999m 
  664.60000m  411.0930n  699.9999m 
  664.70000m  411.4531n  699.9999m 
  664.80000m  411.8135n  699.9999m 
  664.90000m  412.1744n  699.9999m 
  665.00000m  412.5355n  699.9999m 
  665.10000m  412.8971n  699.9999m 
  665.20000m  413.2589n  699.9999m 
  665.30000m  413.6212n  699.9999m 
  665.40000m  413.9838n  699.9999m 
  665.50000m  414.3467n  699.9999m 
  665.60000m  414.7100n  699.9999m 
  665.70000m  415.0737n  699.9999m 
  665.80000m  415.4377n  699.9999m 
  665.90000m  415.8021n  699.9999m 
  666.00000m  416.1669n  699.9999m 
  666.10000m  416.5320n  699.9999m 
  666.20000m  416.8974n  699.9999m 
  666.30000m  417.2632n  699.9999m 
  666.40000m  417.6294n  699.9999m 
  666.50000m  417.9960n  699.9999m 
  666.60000m  418.3629n  699.9999m 
  666.70000m  418.7301n  699.9999m 
  666.80000m  419.0978n  699.9999m 
  666.90000m  419.4658n  699.9999m 
  667.00000m  419.8341n  699.9999m 
  667.10000m  420.2028n  699.9999m 
  667.20000m  420.5719n  699.9999m 
  667.30000m  420.9414n  699.9999m 
  667.40000m  421.3112n  699.9999m 
  667.50000m  421.6813n  699.9999m 
  667.60000m  422.0519n  699.9999m 
  667.70000m  422.4228n  699.9999m 
  667.80000m  422.7940n  699.9999m 
  667.90000m  423.1657n  699.9999m 
  668.00000m  423.5377n  699.9999m 
  668.10000m  423.9100n  699.9999m 
  668.20000m  424.2828n  699.9999m 
  668.30000m  424.6559n  699.9999m 
  668.40000m  425.0294n  699.9999m 
  668.50000m  425.4032n  699.9999m 
  668.60000m  425.7774n  699.9999m 
  668.70000m  426.1520n  699.9999m 
  668.80000m  426.5269n  699.9999m 
  668.90000m  426.9022n  699.9999m 
  669.00000m  427.2779n  699.9999m 
  669.10000m  427.6540n  699.9999m 
  669.20000m  428.0304n  699.9999m 
  669.30000m  428.4072n  699.9999m 
  669.40000m  428.7844n  699.9999m 
  669.50000m  429.1619n  699.9999m 
  669.60000m  429.5398n  699.9999m 
  669.70000m  429.9181n  699.9999m 
  669.80000m  430.2968n  699.9999m 
  669.90000m  430.6758n  699.9999m 
  670.00000m  431.0552n  699.9999m 
  670.10000m  431.4350n  699.9999m 
  670.20000m  431.8152n  699.9999m 
  670.30000m  432.1957n  699.9999m 
  670.40000m  432.5766n  699.9999m 
  670.50000m  432.9579n  699.9999m 
  670.60000m  433.3396n  699.9999m 
  670.70000m  433.7216n  699.9999m 
  670.80000m  434.1040n  699.9999m 
  670.90000m  434.4868n  699.9999m 
  671.00000m  434.8700n  699.9999m 
  671.10000m  435.2536n  699.9999m 
  671.20000m  435.6375n  699.9999m 
  671.30000m  436.0218n  699.9999m 
  671.40000m  436.4065n  699.9999m 
  671.50000m  436.7916n  699.9999m 
  671.60000m  437.1770n  699.9999m 
  671.70000m  437.5629n  699.9999m 
  671.80000m  437.9491n  699.9999m 
  671.90000m  438.3357n  699.9999m 
  672.00000m  438.7227n  699.9999m 
  672.10000m  439.1100n  699.9999m 
  672.20000m  439.4978n  699.9999m 
  672.30000m  439.8859n  699.9999m 
  672.40000m  440.2744n  699.9999m 
  672.50000m  440.6633n  699.9999m 
  672.60000m  441.0526n  699.9999m 
  672.70000m  441.4422n  699.9999m 
  672.80000m  441.8323n  699.9999m 
  672.90000m  442.2227n  699.9999m 
  673.00000m  442.6135n  699.9999m 
  673.10000m  443.0048n  699.9999m 
  673.20000m  443.3963n  699.9999m 
  673.30000m  443.7883n  699.9999m 
  673.40000m  444.1807n  699.9999m 
  673.50000m  444.5735n  699.9999m 
  673.60000m  444.9666n  699.9999m 
  673.70000m  445.3601n  699.9999m 
  673.80000m  445.7541n  699.9999m 
  673.90000m  446.1484n  699.9999m 
  674.00000m  446.5431n  699.9999m 
  674.10000m  446.9382n  699.9999m 
  674.20000m  447.3337n  699.9999m 
  674.30000m  447.7296n  699.9999m 
  674.40000m  448.1258n  699.9999m 
  674.50000m  448.5225n  699.9999m 
  674.60000m  448.9195n  699.9999m 
  674.70000m  449.3170n  699.9999m 
  674.80000m  449.7148n  699.9999m 
  674.90000m  450.1131n  699.9999m 
  675.00000m  450.5117n  699.9999m 
  675.10000m  450.9107n  699.9999m 
  675.20000m  451.3101n  699.9999m 
  675.30000m  451.7100n  699.9999m 
  675.40000m  452.1102n  699.9999m 
  675.50000m  452.5108n  699.9999m 
  675.60000m  452.9118n  699.9999m 
  675.70000m  453.3132n  699.9999m 
  675.80000m  453.7150n  699.9999m 
  675.90000m  454.1172n  699.9999m 
  676.00000m  454.5198n  699.9999m 
  676.10000m  454.9228n  699.9999m 
  676.20000m  455.3262n  699.9999m 
  676.30000m  455.7300n  699.9999m 
  676.40000m  456.1342n  699.9999m 
  676.50000m  456.5388n  699.9999m 
  676.60000m  456.9437n  699.9999m 
  676.70000m  457.3491n  699.9999m 
  676.80000m  457.7549n  699.9999m 
  676.90000m  458.1611n  699.9999m 
  677.00000m  458.5677n  699.9999m 
  677.10000m  458.9748n  699.9999m 
  677.20000m  459.3822n  699.9999m 
  677.30000m  459.7900n  699.9999m 
  677.40000m  460.1982n  699.9999m 
  677.50000m  460.6068n  699.9999m 
  677.60000m  461.0159n  699.9999m 
  677.70000m  461.4253n  699.9999m 
  677.80000m  461.8351n  699.9999m 
  677.90000m  462.2454n  699.9999m 
  678.00000m  462.6560n  699.9999m 
  678.10000m  463.0671n  699.9999m 
  678.20000m  463.4786n  699.9999m 
  678.30000m  463.8904n  699.9999m 
  678.40000m  464.3027n  699.9999m 
  678.50000m  464.7154n  699.9999m 
  678.60000m  465.1285n  699.9999m 
  678.70000m  465.5420n  699.9999m 
  678.80000m  465.9560n  699.9999m 
  678.90000m  466.3703n  699.9999m 
  679.00000m  466.7850n  699.9999m 
  679.10000m  467.2002n  699.9999m 
  679.20000m  467.6158n  699.9999m 
  679.30000m  468.0318n  699.9999m 
  679.40000m  468.4482n  699.9999m 
  679.50000m  468.8650n  699.9999m 
  679.60000m  469.2822n  699.9999m 
  679.70000m  469.6998n  699.9999m 
  679.80000m  470.1179n  699.9999m 
  679.90000m  470.5363n  699.9999m 
  680.00000m  470.9552n  699.9999m 
  680.10000m  471.3745n  699.9999m 
  680.20000m  471.7942n  699.9999m 
  680.30000m  472.2144n  699.9999m 
  680.40000m  472.6349n  699.9999m 
  680.50000m  473.0559n  699.9999m 
  680.60000m  473.4773n  699.9999m 
  680.70000m  473.8991n  699.9999m 
  680.80000m  474.3213n  699.9999m 
  680.90000m  474.7440n  699.9999m 
  681.00000m  475.1670n  699.9999m 
  681.10000m  475.5905n  699.9999m 
  681.20000m  476.0144n  699.9999m 
  681.30000m  476.4387n  699.9999m 
  681.40000m  476.8635n  699.9999m 
  681.50000m  477.2886n  699.9999m 
  681.60000m  477.7142n  699.9999m 
  681.70000m  478.1403n  699.9999m 
  681.80000m  478.5667n  699.9999m 
  681.90000m  478.9936n  699.9999m 
  682.00000m  479.4208n  699.9999m 
  682.10000m  479.8486n  699.9999m 
  682.20000m  480.2767n  699.9999m 
  682.30000m  480.7053n  699.9999m 
  682.40000m  481.1342n  699.9999m 
  682.50000m  481.5637n  699.9999m 
  682.60000m  481.9935n  699.9999m 
  682.70000m  482.4238n  699.9999m 
  682.80000m  482.8545n  699.9999m 
  682.90000m  483.2856n  699.9999m 
  683.00000m  483.7171n  699.9999m 
  683.10000m  484.1491n  699.9999m 
  683.20000m  484.5815n  699.9999m 
  683.30000m  485.0144n  699.9999m 
  683.40000m  485.4477n  699.9999m 
  683.50000m  485.8814n  699.9999m 
  683.60000m  486.3155n  699.9999m 
  683.70000m  486.7501n  699.9999m 
  683.80000m  487.1851n  699.9999m 
  683.90000m  487.6205n  699.9999m 
  684.00000m  488.0564n  699.9999m 
  684.10000m  488.4927n  699.9999m 
  684.20000m  488.9294n  699.9999m 
  684.30000m  489.3666n  699.9999m 
  684.40000m  489.8042n  699.9999m 
  684.50000m  490.2422n  699.9999m 
  684.60000m  490.6807n  699.9999m 
  684.70000m  491.1196n  699.9999m 
  684.80000m  491.5590n  699.9999m 
  684.90000m  491.9988n  699.9999m 
  685.00000m  492.4390n  699.9999m 
  685.10000m  492.8797n  699.9999m 
  685.20000m  493.3208n  699.9999m 
  685.30000m  493.7623n  699.9999m 
  685.40000m  494.2043n  699.9999m 
  685.50000m  494.6467n  699.9999m 
  685.60000m  495.0896n  699.9999m 
  685.70000m  495.5329n  699.9999m 
  685.80000m  495.9767n  699.9999m 
  685.90000m  496.4209n  699.9999m 
  686.00000m  496.8655n  699.9999m 
  686.10000m  497.3106n  699.9999m 
  686.20000m  497.7561n  699.9999m 
  686.30000m  498.2020n  699.9999m 
  686.40000m  498.6485n  699.9999m 
  686.50000m  499.0953n  699.9999m 
  686.60000m  499.5426n  699.9999m 
  686.70000m  499.9904n  699.9999m 
  686.80000m  500.4385n  699.9999m 
  686.90000m  500.8872n  699.9999m 
  687.00000m  501.3363n  699.9999m 
  687.10000m  501.7858n  699.9999m 
  687.20000m  502.2358n  699.9999m 
  687.30000m  502.6862n  699.9999m 
  687.40000m  503.1371n  699.9999m 
  687.50000m  503.5884n  699.9999m 
  687.60000m  504.0402n  699.9999m 
  687.70000m  504.4924n  699.9999m 
  687.80000m  504.9451n  699.9999m 
  687.90000m  505.3983n  699.9999m 
  688.00000m  505.8518n  699.9999m 
  688.10000m  506.3059n  699.9999m 
  688.20000m  506.7604n  699.9999m 
  688.30000m  507.2153n  699.9999m 
  688.40000m  507.6707n  699.9999m 
  688.50000m  508.1266n  699.9999m 
  688.60000m  508.5829n  699.9999m 
  688.70000m  509.0396n  699.9999m 
  688.80000m  509.4968n  699.9999m 
  688.90000m  509.9545n  699.9999m 
  689.00000m  510.4127n  699.9999m 
  689.10000m  510.8712n  699.9999m 
  689.20000m  511.3303n  699.9999m 
  689.30000m  511.7898n  699.9999m 
  689.40000m  512.2498n  699.9999m 
  689.50000m  512.7102n  699.9999m 
  689.60000m  513.1711n  699.9999m 
  689.70000m  513.6324n  699.9999m 
  689.80000m  514.0942n  699.9999m 
  689.90000m  514.5565n  699.9999m 
  690.00000m  515.0192n  699.9999m 
  690.10000m  515.4824n  699.9999m 
  690.20000m  515.9460n  699.9999m 
  690.30000m  516.4102n  699.9999m 
  690.40000m  516.8747n  699.9999m 
  690.50000m  517.3398n  699.9999m 
  690.60000m  517.8053n  699.9999m 
  690.70000m  518.2713n  699.9999m 
  690.80000m  518.7377n  699.9999m 
  690.90000m  519.2046n  699.9999m 
  691.00000m  519.6720n  699.9999m 
  691.10000m  520.1398n  699.9999m 
  691.20000m  520.6081n  699.9999m 
  691.30000m  521.0769n  699.9999m 
  691.40000m  521.5461n  699.9999m 
  691.50000m  522.0158n  699.9999m 
  691.60000m  522.4860n  699.9999m 
  691.70000m  522.9567n  699.9999m 
  691.80000m  523.4278n  699.9999m 
  691.90000m  523.8994n  699.9999m 
  692.00000m  524.3715n  699.9999m 
  692.10000m  524.8440n  699.9999m 
  692.20000m  525.3170n  699.9999m 
  692.30000m  525.7905n  699.9999m 
  692.40000m  526.2644n  699.9999m 
  692.50000m  526.7389n  699.9999m 
  692.60000m  527.2138n  699.9999m 
  692.70000m  527.6891n  699.9999m 
  692.80000m  528.1650n  699.9999m 
  692.90000m  528.6413n  699.9999m 
  693.00000m  529.1181n  699.9999m 
  693.10000m  529.5954n  699.9999m 
  693.20000m  530.0732n  699.9999m 
  693.30000m  530.5514n  699.9999m 
  693.40000m  531.0301n  699.9999m 
  693.50000m  531.5093n  699.9999m 
  693.60000m  531.9890n  699.9999m 
  693.70000m  532.4692n  699.9999m 
  693.80000m  532.9498n  699.9999m 
  693.90000m  533.4309n  699.9999m 
  694.00000m  533.9125n  699.9999m 
  694.10000m  534.3946n  699.9999m 
  694.20000m  534.8772n  699.9999m 
  694.30000m  535.3602n  699.9999m 
  694.40000m  535.8438n  699.9999m 
  694.50000m  536.3278n  699.9999m 
  694.60000m  536.8123n  699.9999m 
  694.70000m  537.2973n  699.9999m 
  694.80000m  537.7827n  699.9999m 
  694.90000m  538.2687n  699.9999m 
  695.00000m  538.7551n  699.9999m 
  695.10000m  539.2421n  699.9999m 
  695.20000m  539.7295n  699.9999m 
  695.30000m  540.2174n  699.9999m 
  695.40000m  540.7058n  699.9999m 
  695.50000m  541.1947n  699.9999m 
  695.60000m  541.6841n  699.9999m 
  695.70000m  542.1739n  699.9999m 
  695.80000m  542.6643n  699.9999m 
  695.90000m  543.1551n  699.9999m 
  696.00000m  543.6465n  699.9999m 
  696.10000m  544.1383n  699.9999m 
  696.20000m  544.6306n  699.9999m 
  696.30000m  545.1234n  699.9999m 
  696.40000m  545.6168n  699.9999m 
  696.50000m  546.1106n  699.9999m 
  696.60000m  546.6049n  699.9999m 
  696.70000m  547.0997n  699.9999m 
  696.80000m  547.5950n  699.9999m 
  696.90000m  548.0908n  699.9999m 
  697.00000m  548.5870n  699.9999m 
  697.10000m  549.0838n  699.9999m 
  697.20000m  549.5811n  699.9999m 
  697.30000m  550.0789n  699.9999m 
  697.40000m  550.5772n  699.9999m 
  697.50000m  551.0760n  699.9999m 
  697.60000m  551.5752n  699.9999m 
  697.70000m  552.0750n  699.9999m 
  697.80000m  552.5753n  699.9999m 
  697.90000m  553.0761n  699.9999m 
  698.00000m  553.5774n  699.9999m 
  698.10000m  554.0792n  699.9999m 
  698.20000m  554.5815n  699.9999m 
  698.30000m  555.0843n  699.9999m 
  698.40000m  555.5876n  699.9999m 
  698.50000m  556.0914n  699.9999m 
  698.60000m  556.5957n  699.9999m 
  698.70000m  557.1005n  699.9999m 
  698.80000m  557.6058n  699.9999m 
  698.90000m  558.1117n  699.9999m 
  699.00000m  558.6180n  699.9999m 
  699.10000m  559.1249n  699.9999m 
  699.20000m  559.6322n  699.9999m 
  699.30000m  560.1401n  699.9999m 
  699.40000m  560.6485n  699.9999m 
  699.50000m  561.1574n  699.9999m 
  699.60000m  561.6668n  699.9999m 
  699.70000m  562.1767n  699.9999m 
  699.80000m  562.6871n  699.9999m 
  699.90000m  563.1981n  699.9999m 
  700.00000m  563.7095n  699.9999m 
  700.10000m  564.2215n  699.9999m 
  700.20000m  564.7339n  699.9999m 
  700.30000m  565.2469n  699.9999m 
  700.40000m  565.7604n  699.9999m 
  700.50000m  566.2745n  699.9999m 
  700.60000m  566.7890n  699.9999m 
  700.70000m  567.3041n  699.9999m 
  700.80000m  567.8196n  699.9999m 
  700.90000m  568.3357n  699.9999m 
  701.00000m  568.8524n  699.9999m 
  701.10000m  569.3695n  699.9999m 
  701.20000m  569.8871n  699.9999m 
  701.30000m  570.4053n  699.9999m 
  701.40000m  570.9240n  699.9999m 
  701.50000m  571.4432n  699.9999m 
  701.60000m  571.9630n  699.9999m 
  701.70000m  572.4832n  699.9999m 
  701.80000m  573.0040n  699.9999m 
  701.90000m  573.5253n  699.9999m 
  702.00000m  574.0471n  699.9999m 
  702.10000m  574.5695n  699.9999m 
  702.20000m  575.0924n  699.9999m 
  702.30000m  575.6158n  699.9999m 
  702.40000m  576.1397n  699.9999m 
  702.50000m  576.6642n  699.9999m 
  702.60000m  577.1891n  699.9999m 
  702.70000m  577.7147n  699.9999m 
  702.80000m  578.2407n  699.9999m 
  702.90000m  578.7673n  699.9999m 
  703.00000m  579.2944n  699.9999m 
  703.10000m  579.8220n  699.9999m 
  703.20000m  580.3502n  699.9999m 
  703.30000m  580.8789n  699.9999m 
  703.40000m  581.4081n  699.9999m 
  703.50000m  581.9379n  699.9999m 
  703.60000m  582.4682n  699.9999m 
  703.70000m  582.9990n  699.9999m 
  703.80000m  583.5303n  699.9999m 
  703.90000m  584.0622n  699.9999m 
  704.00000m  584.5947n  699.9999m 
  704.10000m  585.1276n  699.9999m 
  704.20000m  585.6611n  699.9999m 
  704.30000m  586.1952n  699.9999m 
  704.40000m  586.7298n  699.9999m 
  704.50000m  587.2649n  699.9999m 
  704.60000m  587.8005n  699.9999m 
  704.70000m  588.3367n  699.9999m 
  704.80000m  588.8735n  699.9999m 
  704.90000m  589.4107n  699.9999m 
  705.00000m  589.9486n  699.9999m 
  705.10000m  590.4869n  699.9999m 
  705.20000m  591.0258n  699.9999m 
  705.30000m  591.5653n  699.9999m 
  705.40000m  592.1053n  699.9999m 
  705.50000m  592.6458n  699.9999m 
  705.60000m  593.1869n  699.9999m 
  705.70000m  593.7285n  699.9999m 
  705.80000m  594.2707n  699.9999m 
  705.90000m  594.8134n  699.9999m 
  706.00000m  595.3566n  699.9999m 
  706.10000m  595.9004n  699.9999m 
  706.20000m  596.4448n  699.9999m 
  706.30000m  596.9897n  699.9999m 
  706.40000m  597.5352n  699.9999m 
  706.50000m  598.0812n  699.9999m 
  706.60000m  598.6277n  699.9999m 
  706.70000m  599.1748n  699.9999m 
  706.80000m  599.7225n  699.9999m 
  706.90000m  600.2707n  699.9999m 
  707.00000m  600.8195n  699.9999m 
  707.10000m  601.3688n  699.9999m 
y

          ***** job concluded
1****** HSPICE -- Q-2020.03-SP2-2 linux64 (Nov  1 2020) ******                  
 ******  
 .title ex1_1

 ****** job statistics summary tnom=  25.000 temp=  25.000 ******
  
 ******  Machine Information  ******
 CPU:
 model name	: AMD EPYC 7713 64-Core Processor
 cpu MHz	: 2000.000
  
 OS:
 Linux version 3.10.0-1160.88.1.el7.x86_64 (mockbuild@kbuilder.bsys.centos.org) (gcc version 4.8.5 20150623 (Red Hat 4.8.5-44) (GCC) ) #1 SMP Tue Mar 7 15:41:52 UTC 2023


  ******  HSPICE Threads Information  ******

  Command Line Threads Count :     1
  Available CPU Count        :   256
  Actual Threads Count       :     1


  ******  Circuit Statistics  ******
  # nodes       =      13 # elements   =      15
  # resistors   =       0 # capacitors =       2 # inductors   =       0
  # mutual_inds =       0 # vccs       =       0 # vcvs        =       4
  # cccs        =       0 # ccvs       =       0 # volt_srcs   =       3
  # curr_srcs   =       0 # diodes     =       0 # bjts        =       0
  # jfets       =       0 # mosfets    =       6 # U elements  =       0
  # T elements  =       0 # W elements =       0 # B elements  =       0
  # S elements  =       0 # P elements =       0 # va device   =       0
  # vector_srcs =       0 # N elements =       0


  ******  Runtime Statistics (seconds)  ******

  analysis           time    # points   tot. iter  conv.iter
  op point           0.00           1           0
  dc sweep           0.58        7072       21945
  readin             0.01
  errchk             0.00
  setup              0.00
  output             0.00


           peak memory used        400.88 megabytes
           total cpu time            0.63 seconds
           total elapsed time        0.82 seconds
           job started at     20:30:09 03/18/2025
           job ended   at     20:30:10 03/18/2025
           job total runtime         0.82 seconds


 lic: Release hspice token(s) 
 lic: total license checkout elapse time:        0.17(s)
