 ****** HSPICE -- Q-2020.03-SP2-2 linux64 (Nov  1 2020) ******                  
  Copyright (c) 1986 - 2025 by Synopsys, Inc. All Rights Reserved.              
  This software and the associated documentation are proprietary
  to Synopsys, Inc. This software may only be used in accordance
  with the terms and conditions of a written license agreement with
  Synopsys, Inc. All other use, reproduction, or distribution of
  this software is strictly prohibited.
  Input File: ex1_1.sp                                                          
  Command line options: /RAID2/cad/synopsys/hspice/2020.03-sp2-2/hspice/linux64/hspice -i ex1_1.sp -o ex1_1.lis
  Start time: Wed Mar 19 14:24:27 2025
 lic:  
 lic: FLEXlm: SDK_12.6 
 lic: USER:   es25MCS042           HOSTNAME: ee28 
 lic: HOSTID: "d85ed3efc19a"       PID:      149104 
 lic: Using FLEXlm license file: 
 lic: 26585@lshc 
 lic: Checkout 1 hspice 
 lic: License/Maintenance for hspice will expire on 14-may-2025/2024.09 
 lic: 199(in_use)/1100(total) FLOATING license(s) on SERVER 26585@lshc 
 lic:   
  
      
 *****************************************************************
 ******  option summary
 ******
 runlvl  = 3         bypass  = 2.0000    
 ******
 .title ex1_1

 ****** dc transfer curves tnom=  25.000 temp=  25.000 ******
x

 volt         voltage    voltage   
             q          qb         
 -494.97475m  700.0000m   47.9486f 
 -494.87475m  700.0000m   48.1552f 
 -494.77475m  700.0000m   48.3629f 
 -494.67475m  700.0000m   48.5717f 
 -494.57475m  700.0000m   48.7817f 
 -494.47475m  700.0000m   48.9928f 
 -494.37475m  700.0000m   49.2052f 
 -494.27475m  700.0000m   49.4187f 
 -494.17475m  700.0000m   49.6334f 
 -494.07475m  700.0000m   49.8493f 
 -493.97475m  700.0000m   50.0664f 
 -493.87475m  700.0000m   50.2847f 
 -493.77475m  700.0000m   50.5042f 
 -493.67475m  700.0000m   50.7249f 
 -493.57475m  700.0000m   50.9469f 
 -493.47475m  700.0000m   51.1701f 
 -493.37475m  700.0000m   51.3945f 
 -493.27475m  700.0000m   51.6202f 
 -493.17475m  700.0000m   51.8471f 
 -493.07475m  700.0000m   52.0753f 
 -492.97475m  700.0000m   52.3048f 
 -492.87475m  700.0000m   52.5355f 
 -492.77475m  700.0000m   52.7675f 
 -492.67475m  700.0000m   53.0008f 
 -492.57475m  700.0000m   53.2354f 
 -492.47475m  700.0000m   53.4713f 
 -492.37475m  700.0000m   53.7085f 
 -492.27475m  700.0000m   53.9471f 
 -492.17475m  700.0000m   54.1869f 
 -492.07475m  700.0000m   54.4281f 
 -491.97475m  700.0000m   54.6706f 
 -491.87475m  700.0000m   54.9145f 
 -491.77475m  700.0000m   55.1597f 
 -491.67475m  700.0000m   55.4063f 
 -491.57475m  700.0000m   55.6542f 
 -491.47475m  700.0000m   55.9035f 
 -491.37475m  700.0000m   56.1543f 
 -491.27475m  700.0000m   56.4063f 
 -491.17475m  700.0000m   56.6598f 
 -491.07475m  700.0000m   56.9147f 
 -490.97475m  700.0000m   57.1711f 
 -490.87475m  700.0000m   57.4288f 
 -490.77475m  700.0000m   57.6879f 
 -490.67475m  700.0000m   57.9485f 
 -490.57475m  700.0000m   58.2106f 
 -490.47475m  700.0000m   58.4741f 
 -490.37475m  700.0000m   58.7390f 
 -490.27475m  700.0000m   59.0055f 
 -490.17475m  700.0000m   59.2734f 
 -490.07475m  700.0000m   59.5428f 
 -489.97475m  700.0000m   59.8136f 
 -489.87475m  700.0000m   60.0860f 
 -489.77475m  700.0000m   60.3599f 
 -489.67475m  700.0000m   60.6353f 
 -489.57475m  700.0000m   60.9122f 
 -489.47475m  700.0000m   61.1907f 
 -489.37475m  700.0000m   61.4707f 
 -489.27475m  700.0000m   61.7523f 
 -489.17475m  700.0000m   62.0354f 
 -489.07475m  700.0000m   62.3201f 
 -488.97475m  700.0000m   62.6063f 
 -488.87475m  700.0000m   62.8942f 
 -488.77475m  700.0000m   63.1836f 
 -488.67475m  700.0000m   63.4747f 
 -488.57475m  700.0000m   63.7673f 
 -488.47475m  700.0000m   64.0616f 
 -488.37475m  700.0000m   64.3575f 
 -488.27475m  700.0000m   64.6550f 
 -488.17475m  700.0000m   64.9542f 
 -488.07475m  700.0000m   65.2551f 
 -487.97475m  700.0000m   65.5576f 
 -487.87475m  700.0000m   65.8618f 
 -487.77475m  700.0000m   66.1676f 
 -487.67475m  700.0000m   66.4752f 
 -487.57475m  700.0000m   66.7845f 
 -487.47475m  700.0000m   67.0954f 
 -487.37475m  700.0000m   67.4081f 
 -487.27475m  700.0000m   67.7225f 
 -487.17475m  700.0000m   68.0387f 
 -487.07475m  700.0000m   68.3566f 
 -486.97475m  700.0000m   68.6763f 
 -486.87475m  700.0000m   68.9977f 
 -486.77475m  700.0000m   69.3209f 
 -486.67475m  700.0000m   69.6459f 
 -486.57475m  700.0000m   69.9727f 
 -486.47475m  700.0000m   70.3014f 
 -486.37475m  700.0000m   70.6318f 
 -486.27475m  700.0000m   70.9640f 
 -486.17475m  700.0000m   71.2981f 
 -486.07475m  700.0000m   71.6341f 
 -485.97475m  700.0000m   71.9718f 
 -485.87475m  700.0000m   72.3115f 
 -485.77475m  700.0000m   72.6530f 
 -485.67475m  700.0000m   72.9965f 
 -485.57475m  700.0000m   73.3418f 
 -485.47475m  700.0000m   73.6890f 
 -485.37475m  700.0000m   74.0382f 
 -485.27475m  700.0000m   74.3892f 
 -485.17475m  700.0000m   74.7423f 
 -485.07475m  700.0000m   75.0972f 
 -484.97475m  700.0000m   75.4542f 
 -484.87475m  700.0000m   75.8131f 
 -484.77475m  700.0000m   76.1740f 
 -484.67475m  700.0000m   76.5368f 
 -484.57475m  700.0000m   76.9017f 
 -484.47475m  700.0000m   77.2686f 
 -484.37475m  700.0000m   77.6376f 
 -484.27475m  700.0000m   78.0085f 
 -484.17475m  700.0000m   78.3815f 
 -484.07475m  700.0000m   78.7566f 
 -483.97475m  700.0000m   79.1338f 
 -483.87475m  700.0000m   79.5130f 
 -483.77475m  700.0000m   79.8943f 
 -483.67475m  700.0000m   80.2777f 
 -483.57475m  700.0000m   80.6633f 
 -483.47475m  700.0000m   81.0510f 
 -483.37475m  700.0000m   81.4408f 
 -483.27475m  700.0000m   81.8328f 
 -483.17475m  700.0000m   82.2269f 
 -483.07475m  700.0000m   82.6232f 
 -482.97475m  700.0000m   83.0217f 
 -482.87475m  700.0000m   83.4224f 
 -482.77475m  700.0000m   83.8253f 
 -482.67475m  700.0000m   84.2304f 
 -482.57475m  700.0000m   84.6378f 
 -482.47475m  700.0000m   85.0474f 
 -482.37475m  700.0000m   85.4593f 
 -482.27475m  700.0000m   85.8735f 
 -482.17475m  700.0000m   86.2899f 
 -482.07475m  700.0000m   86.7086f 
 -481.97475m  700.0000m   87.1297f 
 -481.87475m  700.0000m   87.5530f 
 -481.77475m  700.0000m   87.9787f 
 -481.67475m  700.0000m   88.4068f 
 -481.57475m  700.0000m   88.8372f 
 -481.47475m  700.0000m   89.2700f 
 -481.37475m  700.0000m   89.7052f 
 -481.27475m  700.0000m   90.1428f 
 -481.17475m  700.0000m   90.5828f 
 -481.07475m  700.0000m   91.0252f 
 -480.97475m  700.0000m   91.4700f 
 -480.87475m  700.0000m   91.9173f 
 -480.77475m  700.0000m   92.3671f 
 -480.67475m  700.0000m   92.8194f 
 -480.57475m  700.0000m   93.2741f 
 -480.47475m  700.0000m   93.7314f 
 -480.37475m  700.0000m   94.1912f 
 -480.27475m  700.0000m   94.6535f 
 -480.17475m  700.0000m   95.1184f 
 -480.07475m  700.0000m   95.5858f 
 -479.97475m  700.0000m   96.0558f 
 -479.87475m  700.0000m   96.5284f 
 -479.77475m  700.0000m   97.0037f 
 -479.67475m  700.0000m   97.4815f 
 -479.57475m  700.0000m   97.9620f 
 -479.47475m  700.0000m   98.4451f 
 -479.37475m  700.0000m   98.9308f 
 -479.27475m  700.0000m   99.4193f 
 -479.17475m  700.0000m   99.9105f 
 -479.07475m  700.0000m  100.4043f 
 -478.97475m  700.0000m  100.9009f 
 -478.87475m  700.0000m  101.4002f 
 -478.77475m  700.0000m  101.9023f 
 -478.67475m  700.0000m  102.4071f 
 -478.57475m  700.0000m  102.9147f 
 -478.47475m  700.0000m  103.4251f 
 -478.37475m  700.0000m  103.9384f 
 -478.27475m  700.0000m  104.4544f 
 -478.17475m  700.0000m  104.9733f 
 -478.07475m  700.0000m  105.4951f 
 -477.97475m  700.0000m  106.0197f 
 -477.87475m  700.0000m  106.5472f 
 -477.77475m  700.0000m  107.0777f 
 -477.67475m  700.0000m  107.6110f 
 -477.57475m  700.0000m  108.1473f 
 -477.47475m  700.0000m  108.6866f 
 -477.37475m  700.0000m  109.2288f 
 -477.27475m  700.0000m  109.7740f 
 -477.17475m  700.0000m  110.3222f 
 -477.07475m  700.0000m  110.8734f 
 -476.97475m  700.0000m  111.4277f 
 -476.87475m  700.0000m  111.9850f 
 -476.77475m  700.0000m  112.5454f 
 -476.67475m  700.0000m  113.1089f 
 -476.57475m  700.0000m  113.6755f 
 -476.47475m  700.0000m  114.2452f 
 -476.37475m  700.0000m  114.8180f 
 -476.27475m  700.0000m  115.3940f 
 -476.17475m  700.0000m  115.9732f 
 -476.07475m  700.0000m  116.5555f 
 -475.97475m  700.0000m  117.1411f 
 -475.87475m  700.0000m  117.7299f 
 -475.77475m  700.0000m  118.3219f 
 -475.67475m  700.0000m  118.9172f 
 -475.57475m  700.0000m  119.5158f 
 -475.47475m  700.0000m  120.1176f 
 -475.37475m  700.0000m  120.7228f 
 -475.27475m  700.0000m  121.3313f 
 -475.17475m  700.0000m  121.9432f 
 -475.07475m  700.0000m  122.5584f 
 -474.97475m  700.0000m  123.1771f 
 -474.87475m  700.0000m  123.7991f 
 -474.77475m  700.0000m  124.4245f 
 -474.67475m  700.0000m  125.0534f 
 -474.57475m  700.0000m  125.6858f 
 -474.47475m  700.0000m  126.3216f 
 -474.37475m  700.0000m  126.9609f 
 -474.27475m  700.0000m  127.6038f 
 -474.17475m  700.0000m  128.2502f 
 -474.07475m  700.0000m  128.9002f 
 -473.97475m  700.0000m  129.5537f 
 -473.87475m  700.0000m  130.2108f 
 -473.77475m  700.0000m  130.8716f 
 -473.67475m  700.0000m  131.5359f 
 -473.57475m  700.0000m  132.2040f 
 -473.47475m  700.0000m  132.8757f 
 -473.37475m  700.0000m  133.5511f 
 -473.27475m  700.0000m  134.2302f 
 -473.17475m  700.0000m  134.9131f 
 -473.07475m  700.0000m  135.5997f 
 -472.97475m  700.0000m  136.2901f 
 -472.87475m  700.0000m  136.9843f 
 -472.77475m  700.0000m  137.6823f 
 -472.67475m  700.0000m  138.3842f 
 -472.57475m  700.0000m  139.0899f 
 -472.47475m  700.0000m  139.7995f 
 -472.37475m  700.0000m  140.5131f 
 -472.27475m  700.0000m  141.2305f 
 -472.17475m  700.0000m  141.9519f 
 -472.07475m  700.0000m  142.6772f 
 -471.97475m  700.0000m  143.4066f 
 -471.87475m  700.0000m  144.1399f 
 -471.77475m  700.0000m  144.8773f 
 -471.67475m  700.0000m  145.6188f 
 -471.57475m  700.0000m  146.3643f 
 -471.47475m  700.0000m  147.1139f 
 -471.37475m  700.0000m  147.8677f 
 -471.27475m  700.0000m  148.6256f 
 -471.17475m  700.0000m  149.3877f 
 -471.07475m  700.0000m  150.1539f 
 -470.97475m  700.0000m  150.9244f 
 -470.87475m  700.0000m  151.6991f 
 -470.77475m  700.0000m  152.4781f 
 -470.67475m  700.0000m  153.2614f 
 -470.57475m  700.0000m  154.0489f 
 -470.47475m  700.0000m  154.8408f 
 -470.37475m  700.0000m  155.6371f 
 -470.27475m  700.0000m  156.4377f 
 -470.17475m  700.0000m  157.2428f 
 -470.07475m  700.0000m  158.0522f 
 -469.97475m  700.0000m  158.8662f 
 -469.87475m  700.0000m  159.6846f 
 -469.77475m  700.0000m  160.5074f 
 -469.67475m  700.0000m  161.3349f 
 -469.57475m  700.0000m  162.1668f 
 -469.47475m  700.0000m  163.0034f 
 -469.37475m  700.0000m  163.8445f 
 -469.27475m  700.0000m  164.6903f 
 -469.17475m  700.0000m  165.5407f 
 -469.07475m  700.0000m  166.3958f 
 -468.97475m  700.0000m  167.2556f 
 -468.87475m  700.0000m  168.1202f 
 -468.77475m  700.0000m  168.9894f 
 -468.67475m  700.0000m  169.8635f 
 -468.57475m  700.0000m  170.7424f 
 -468.47475m  700.0000m  171.6261f 
 -468.37475m  700.0000m  172.5146f 
 -468.27475m  700.0000m  173.4081f 
 -468.17475m  700.0000m  174.3064f 
 -468.07475m  700.0000m  175.2097f 
 -467.97475m  700.0000m  176.1180f 
 -467.87475m  700.0000m  177.0312f 
 -467.77475m  700.0000m  177.9495f 
 -467.67475m  700.0000m  178.8728f 
 -467.57475m  700.0000m  179.8012f 
 -467.47475m  700.0000m  180.7347f 
 -467.37475m  700.0000m  181.6733f 
 -467.27475m  700.0000m  182.6171f 
 -467.17475m  700.0000m  183.5661f 
 -467.07475m  700.0000m  184.5203f 
 -466.97475m  700.0000m  185.4798f 
 -466.87475m  700.0000m  186.4445f 
 -466.77475m  700.0000m  187.4145f 
 -466.67475m  700.0000m  188.3898f 
 -466.57475m  700.0000m  189.3705f 
 -466.47475m  700.0000m  190.3566f 
 -466.37475m  700.0000m  191.3482f 
 -466.27475m  700.0000m  192.3451f 
 -466.17475m  700.0000m  193.3476f 
 -466.07475m  700.0000m  194.3555f 
 -465.97475m  700.0000m  195.3690f 
 -465.87475m  700.0000m  196.3881f 
 -465.77475m  700.0000m  197.4128f 
 -465.67475m  700.0000m  198.4431f 
 -465.57475m  700.0000m  199.4790f 
 -465.47475m  700.0000m  200.5207f 
 -465.37475m  700.0000m  201.5680f 
 -465.27475m  700.0000m  202.6212f 
 -465.17475m  700.0000m  203.6801f 
 -465.07475m  700.0000m  204.7448f 
 -464.97475m  700.0000m  205.8154f 
 -464.87475m  700.0000m  206.8919f 
 -464.77475m  700.0000m  207.9743f 
 -464.67475m  700.0000m  209.0626f 
 -464.57475m  700.0000m  210.1569f 
 -464.47475m  700.0000m  211.2573f 
 -464.37475m  700.0000m  212.3636f 
 -464.27475m  700.0000m  213.4761f 
 -464.17475m  700.0000m  214.5946f 
 -464.07475m  700.0000m  215.7194f 
 -463.97475m  700.0000m  216.8502f 
 -463.87475m  700.0000m  217.9873f 
 -463.77475m  700.0000m  219.1307f 
 -463.67475m  700.0000m  220.2803f 
 -463.57475m  700.0000m  221.4363f 
 -463.47475m  700.0000m  222.5986f 
 -463.37475m  700.0000m  223.7673f 
 -463.27475m  700.0000m  224.9424f 
 -463.17475m  700.0000m  226.1239f 
 -463.07475m  700.0000m  227.3120f 
 -462.97475m  700.0000m  228.5065f 
 -462.87475m  700.0000m  229.7077f 
 -462.77475m  700.0000m  230.9154f 
 -462.67475m  700.0000m  232.1298f 
 -462.57475m  700.0000m  233.3508f 
 -462.47475m  700.0000m  234.5786f 
 -462.37475m  700.0000m  235.8131f 
 -462.27475m  700.0000m  237.0543f 
 -462.17475m  700.0000m  238.3024f 
 -462.07475m  700.0000m  239.5574f 
 -461.97475m  700.0000m  240.8192f 
 -461.87475m  700.0000m  242.0880f 
 -461.77475m  700.0000m  243.3637f 
 -461.67475m  700.0000m  244.6465f 
 -461.57475m  700.0000m  245.9363f 
 -461.47475m  700.0000m  247.2331f 
 -461.37475m  700.0000m  248.5371f 
 -461.27475m  700.0000m  249.8483f 
 -461.17475m  700.0000m  251.1667f 
 -461.07475m  700.0000m  252.4923f 
 -460.97475m  700.0000m  253.8251f 
 -460.87475m  700.0000m  255.1653f 
 -460.77475m  700.0000m  256.5129f 
 -460.67475m  700.0000m  257.8679f 
 -460.57475m  700.0000m  259.2303f 
 -460.47475m  700.0000m  260.6002f 
 -460.37475m  700.0000m  261.9776f 
 -460.27475m  700.0000m  263.3625f 
 -460.17475m  700.0000m  264.7551f 
 -460.07475m  700.0000m  266.1553f 
 -459.97475m  700.0000m  267.5633f 
 -459.87475m  700.0000m  268.9789f 
 -459.77475m  700.0000m  270.4023f 
 -459.67475m  700.0000m  271.8336f 
 -459.57475m  700.0000m  273.2726f 
 -459.47475m  700.0000m  274.7196f 
 -459.37475m  700.0000m  276.1746f 
 -459.27475m  700.0000m  277.6375f 
 -459.17475m  700.0000m  279.1085f 
 -459.07475m  700.0000m  280.5875f 
 -458.97475m  700.0000m  282.0747f 
 -458.87475m  700.0000m  283.5700f 
 -458.77475m  700.0000m  285.0736f 
 -458.67475m  700.0000m  286.5853f 
 -458.57475m  700.0000m  288.1054f 
 -458.47475m  700.0000m  289.6339f 
 -458.37475m  700.0000m  291.1707f 
 -458.27475m  700.0000m  292.7160f 
 -458.17475m  700.0000m  294.2697f 
 -458.07475m  700.0000m  295.8320f 
 -457.97475m  700.0000m  297.4029f 
 -457.87475m  700.0000m  298.9824f 
 -457.77475m  700.0000m  300.5705f 
 -457.67475m  700.0000m  302.1674f 
 -457.57475m  700.0000m  303.7730f 
 -457.47475m  700.0000m  305.3875f 
 -457.37475m  700.0000m  307.0108f 
 -457.27475m  700.0000m  308.6431f 
 -457.17475m  700.0000m  310.2842f 
 -457.07475m  700.0000m  311.9344f 
 -456.97475m  700.0000m  313.5937f 
 -456.87475m  700.0000m  315.2621f 
 -456.77475m  700.0000m  316.9396f 
 -456.67475m  700.0000m  318.6263f 
 -456.57475m  700.0000m  320.3223f 
 -456.47475m  700.0000m  322.0276f 
 -456.37475m  700.0000m  323.7423f 
 -456.27475m  700.0000m  325.4664f 
 -456.17475m  700.0000m  327.1999f 
 -456.07475m  700.0000m  328.9430f 
 -455.97475m  700.0000m  330.6956f 
 -455.87475m  700.0000m  332.4579f 
 -455.77475m  700.0000m  334.2298f 
 -455.67475m  700.0000m  336.0114f 
 -455.57475m  700.0000m  337.8029f 
 -455.47475m  700.0000m  339.6041f 
 -455.37475m  700.0000m  341.4153f 
 -455.27475m  700.0000m  343.2363f 
 -455.17475m  700.0000m  345.0674f 
 -455.07475m  700.0000m  346.9085f 
 -454.97475m  700.0000m  348.7598f 
 -454.87475m  700.0000m  350.6212f 
 -454.77475m  700.0000m  352.4928f 
 -454.67475m  700.0000m  354.3747f 
 -454.57475m  700.0000m  356.2669f 
 -454.47475m  700.0000m  358.1695f 
 -454.37475m  700.0000m  360.0825f 
 -454.27475m  700.0000m  362.0061f 
 -454.17475m  700.0000m  363.9401f 
 -454.07475m  700.0000m  365.8849f 
 -453.97475m  700.0000m  367.8402f 
 -453.87475m  700.0000m  369.8064f 
 -453.77475m  700.0000m  371.7833f 
 -453.67475m  700.0000m  373.7710f 
 -453.57475m  700.0000m  375.7697f 
 -453.47475m  700.0000m  377.7793f 
 -453.37475m  700.0000m  379.8000f 
 -453.27475m  700.0000m  381.8317f 
 -453.17475m  700.0000m  383.8746f 
 -453.07475m  700.0000m  385.9287f 
 -452.97475m  700.0000m  387.9941f 
 -452.87475m  700.0000m  390.0708f 
 -452.77475m  700.0000m  392.1589f 
 -452.67475m  700.0000m  394.2585f 
 -452.57475m  700.0000m  396.3695f 
 -452.47475m  700.0000m  398.4922f 
 -452.37475m  700.0000m  400.6265f 
 -452.27475m  700.0000m  402.7726f 
 -452.17475m  700.0000m  404.9304f 
 -452.07475m  700.0000m  407.1000f 
 -451.97475m  700.0000m  409.2816f 
 -451.87475m  700.0000m  411.4751f 
 -451.77475m  700.0000m  413.6806f 
 -451.67475m  700.0000m  415.8983f 
 -451.57475m  700.0000m  418.1281f 
 -451.47475m  700.0000m  420.3702f 
 -451.37475m  700.0000m  422.6245f 
 -451.27475m  700.0000m  424.8913f 
 -451.17475m  700.0000m  427.1704f 
 -451.07475m  700.0000m  429.4621f 
 -450.97475m  700.0000m  431.7664f 
 -450.87475m  700.0000m  434.0833f 
 -450.77475m  700.0000m  436.4129f 
 -450.67475m  700.0000m  438.7552f 
 -450.57475m  700.0000m  441.1105f 
 -450.47475m  700.0000m  443.4786f 
 -450.37475m  700.0000m  445.8598f 
 -450.27475m  700.0000m  448.2540f 
 -450.17475m  700.0000m  450.6613f 
 -450.07475m  700.0000m  453.0819f 
 -449.97475m  700.0000m  455.5157f 
 -449.87475m  700.0000m  457.9629f 
 -449.77475m  700.0000m  460.4235f 
 -449.67475m  700.0000m  462.8976f 
 -449.57475m  700.0000m  465.3853f 
 -449.47475m  700.0000m  467.8867f 
 -449.37475m  700.0000m  470.4017f 
 -449.27475m  700.0000m  472.9306f 
 -449.17475m  700.0000m  475.4733f 
 -449.07475m  700.0000m  478.0300f 
 -448.97475m  700.0000m  480.6007f 
 -448.87475m  700.0000m  483.1855f 
 -448.77475m  700.0000m  485.7844f 
 -448.67475m  700.0000m  488.3977f 
 -448.57475m  700.0000m  491.0252f 
 -448.47475m  700.0000m  493.6672f 
 -448.37475m  700.0000m  496.3237f 
 -448.27475m  700.0000m  498.9947f 
 -448.17475m  700.0000m  501.6804f 
 -448.07475m  700.0000m  504.3809f 
 -447.97475m  700.0000m  507.0961f 
 -447.87475m  700.0000m  509.8263f 
 -447.77475m  700.0000m  512.5714f 
 -447.67475m  700.0000m  515.3316f 
 -447.57475m  700.0000m  518.1069f 
 -447.47475m  700.0000m  520.8974f 
 -447.37475m  700.0000m  523.7032f 
 -447.27475m  700.0000m  526.5245f 
 -447.17475m  700.0000m  529.3612f 
 -447.07475m  700.0000m  532.2134f 
 -446.97475m  700.0000m  535.0814f 
 -446.87475m  700.0000m  537.9650f 
 -446.77475m  700.0000m  540.8645f 
 -446.67475m  700.0000m  543.7798f 
 -446.57475m  700.0000m  546.7112f 
 -446.47475m  700.0000m  549.6586f 
 -446.37475m  700.0000m  552.6222f 
 -446.27475m  700.0000m  555.6020f 
 -446.17475m  700.0000m  558.5982f 
 -446.07475m  700.0000m  561.6108f 
 -445.97475m  700.0000m  564.6400f 
 -445.87475m  700.0000m  567.6857f 
 -445.77475m  700.0000m  570.7482f 
 -445.67475m  700.0000m  573.8275f 
 -445.57475m  700.0000m  576.9236f 
 -445.47475m  700.0000m  580.0367f 
 -445.37475m  700.0000m  583.1669f 
 -445.27475m  700.0000m  586.3143f 
 -445.17475m  700.0000m  589.4789f 
 -445.07475m  700.0000m  592.6609f 
 -444.97475m  700.0000m  595.8603f 
 -444.87475m  700.0000m  599.0773f 
 -444.77475m  700.0000m  602.3119f 
 -444.67475m  700.0000m  605.5643f 
 -444.57475m  700.0000m  608.8345f 
 -444.47475m  700.0000m  612.1226f 
 -444.37475m  700.0000m  615.4287f 
 -444.27475m  700.0000m  618.7530f 
 -444.17475m  700.0000m  622.0955f 
 -444.07475m  700.0000m  625.4564f 
 -443.97475m  700.0000m  628.8357f 
 -443.87475m  700.0000m  632.2335f 
 -443.77475m  700.0000m  635.6499f 
 -443.67475m  700.0000m  639.0851f 
 -443.57475m  700.0000m  642.5391f 
 -443.47475m  700.0000m  646.0120f 
 -443.37475m  700.0000m  649.5040f 
 -443.27475m  700.0000m  653.0152f 
 -443.17475m  700.0000m  656.5456f 
 -443.07475m  700.0000m  660.0953f 
 -442.97475m  700.0000m  663.6645f 
 -442.87475m  700.0000m  667.2533f 
 -442.77475m  700.0000m  670.8618f 
 -442.67475m  700.0000m  674.4900f 
 -442.57475m  700.0000m  678.1382f 
 -442.47475m  700.0000m  681.8063f 
 -442.37475m  700.0000m  685.4946f 
 -442.27475m  700.0000m  689.2031f 
 -442.17475m  700.0000m  692.9319f 
 -442.07475m  700.0000m  696.6812f 
 -441.97475m  700.0000m  700.4510f 
 -441.87475m  700.0000m  704.2415f 
 -441.77475m  700.0000m  708.0527f 
 -441.67475m  700.0000m  711.8849f 
 -441.57475m  700.0000m  715.7381f 
 -441.47475m  700.0000m  719.6124f 
 -441.37475m  700.0000m  723.5079f 
 -441.27475m  700.0000m  727.4248f 
 -441.17475m  700.0000m  731.3632f 
 -441.07475m  700.0000m  735.3232f 
 -440.97475m  700.0000m  739.3048f 
 -440.87475m  700.0000m  743.3083f 
 -440.77475m  700.0000m  747.3338f 
 -440.67475m  700.0000m  751.3813f 
 -440.57475m  700.0000m  755.4510f 
 -440.47475m  700.0000m  759.5431f 
 -440.37475m  700.0000m  763.6575f 
 -440.27475m  700.0000m  767.7945f 
 -440.17475m  700.0000m  771.9542f 
 -440.07475m  700.0000m  776.1367f 
 -439.97475m  700.0000m  780.3422f 
 -439.87475m  700.0000m  784.5706f 
 -439.77475m  700.0000m  788.8223f 
 -439.67475m  700.0000m  793.0973f 
 -439.57475m  700.0000m  797.3957f 
 -439.47475m  700.0000m  801.7176f 
 -439.37475m  700.0000m  806.0633f 
 -439.27475m  700.0000m  810.4328f 
 -439.17475m  700.0000m  814.8262f 
 -439.07475m  700.0000m  819.2437f 
 -438.97475m  700.0000m  823.6855f 
 -438.87475m  700.0000m  828.1515f 
 -438.77475m  700.0000m  832.6421f 
 -438.67475m  700.0000m  837.1573f 
 -438.57475m  700.0000m  841.6972f 
 -438.47475m  700.0000m  846.2620f 
 -438.37475m  700.0000m  850.8518f 
 -438.27475m  700.0000m  855.4668f 
 -438.17475m  700.0000m  860.1071f 
 -438.07475m  700.0000m  864.7728f 
 -437.97475m  700.0000m  869.4641f 
 -437.87475m  700.0000m  874.1811f 
 -437.77475m  700.0000m  878.9240f 
 -437.67475m  700.0000m  883.6929f 
 -437.57475m  700.0000m  888.4878f 
 -437.47475m  700.0000m  893.3091f 
 -437.37475m  700.0000m  898.1568f 
 -437.27475m  700.0000m  903.0311f 
 -437.17475m  700.0000m  907.9321f 
 -437.07475m  700.0000m  912.8599f 
 -436.97475m  700.0000m  917.8148f 
 -436.87475m  700.0000m  922.7968f 
 -436.77475m  700.0000m  927.8061f 
 -436.67475m  700.0000m  932.8429f 
 -436.57475m  700.0000m  937.9073f 
 -436.47475m  700.0000m  942.9994f 
 -436.37475m  700.0000m  948.1195f 
 -436.27475m  700.0000m  953.2676f 
 -436.17475m  700.0000m  958.4439f 
 -436.07475m  700.0000m  963.6486f 
 -435.97475m  700.0000m  968.8818f 
 -435.87475m  700.0000m  974.1437f 
 -435.77475m  700.0000m  979.4344f 
 -435.67475m  700.0000m  984.7541f 
 -435.57475m  700.0000m  990.1030f 
 -435.47475m  700.0000m  995.4812f 
 -435.37475m  700.0000m    1.0009p 
 -435.27475m  700.0000m    1.0063p 
 -435.17475m  700.0000m    1.0118p 
 -435.07475m  700.0000m    1.0173p 
 -434.97475m  700.0000m    1.0228p 
 -434.87475m  700.0000m    1.0284p 
 -434.77475m  700.0000m    1.0340p 
 -434.67475m  700.0000m    1.0396p 
 -434.57475m  700.0000m    1.0452p 
 -434.47475m  700.0000m    1.0509p 
 -434.37475m  700.0000m    1.0566p 
 -434.27475m  700.0000m    1.0624p 
 -434.17475m  700.0000m    1.0681p 
 -434.07475m  700.0000m    1.0739p 
 -433.97475m  700.0000m    1.0798p 
 -433.87475m  700.0000m    1.0857p 
 -433.77475m  700.0000m    1.0916p 
 -433.67475m  700.0000m    1.0975p 
 -433.57475m  700.0000m    1.1035p 
 -433.47475m  700.0000m    1.1095p 
 -433.37475m  700.0000m    1.1155p 
 -433.27475m  700.0000m    1.1216p 
 -433.17475m  700.0000m    1.1276p 
 -433.07475m  700.0000m    1.1338p 
 -432.97475m  700.0000m    1.1399p 
 -432.87475m  700.0000m    1.1461p 
 -432.77475m  700.0000m    1.1524p 
 -432.67475m  700.0000m    1.1586p 
 -432.57475m  700.0000m    1.1649p 
 -432.47475m  700.0000m    1.1713p 
 -432.37475m  700.0000m    1.1777p 
 -432.27475m  700.0000m    1.1841p 
 -432.17475m  700.0000m    1.1905p 
 -432.07475m  700.0000m    1.1970p 
 -431.97475m  700.0000m    1.2035p 
 -431.87475m  700.0000m    1.2100p 
 -431.77475m  700.0000m    1.2166p 
 -431.67475m  700.0000m    1.2232p 
 -431.57475m  700.0000m    1.2299p 
 -431.47475m  700.0000m    1.2366p 
 -431.37475m  700.0000m    1.2433p 
 -431.27475m  700.0000m    1.2501p 
 -431.17475m  700.0000m    1.2569p 
 -431.07475m  700.0000m    1.2637p 
 -430.97475m  700.0000m    1.2706p 
 -430.87475m  700.0000m    1.2775p 
 -430.77475m  700.0000m    1.2845p 
 -430.67475m  700.0000m    1.2915p 
 -430.57475m  700.0000m    1.2985p 
 -430.47475m  700.0000m    1.3056p 
 -430.37475m  700.0000m    1.3127p 
 -430.27475m  700.0000m    1.3198p 
 -430.17475m  700.0000m    1.3270p 
 -430.07475m  700.0000m    1.3342p 
 -429.97475m  700.0000m    1.3415p 
 -429.87475m  700.0000m    1.3488p 
 -429.77475m  700.0000m    1.3561p 
 -429.67475m  700.0000m    1.3635p 
 -429.57475m  700.0000m    1.3709p 
 -429.47475m  700.0000m    1.3784p 
 -429.37475m  700.0000m    1.3859p 
 -429.27475m  700.0000m    1.3935p 
 -429.17475m  700.0000m    1.4010p 
 -429.07475m  700.0000m    1.4087p 
 -428.97475m  700.0000m    1.4163p 
 -428.87475m  700.0000m    1.4241p 
 -428.77475m  700.0000m    1.4318p 
 -428.67475m  700.0000m    1.4396p 
 -428.57475m  700.0000m    1.4475p 
 -428.47475m  700.0000m    1.4553p 
 -428.37475m  700.0000m    1.4633p 
 -428.27475m  700.0000m    1.4712p 
 -428.17475m  700.0000m    1.4792p 
 -428.07475m  700.0000m    1.4873p 
 -427.97475m  700.0000m    1.4954p 
 -427.87475m  700.0000m    1.5036p 
 -427.77475m  700.0000m    1.5117p 
 -427.67475m  700.0000m    1.5200p 
 -427.57475m  700.0000m    1.5283p 
 -427.47475m  700.0000m    1.5366p 
 -427.37475m  700.0000m    1.5450p 
 -427.27475m  700.0000m    1.5534p 
 -427.17475m  700.0000m    1.5618p 
 -427.07475m  700.0000m    1.5703p 
 -426.97475m  700.0000m    1.5789p 
 -426.87475m  700.0000m    1.5875p 
 -426.77475m  700.0000m    1.5962p 
 -426.67475m  700.0000m    1.6049p 
 -426.57475m  700.0000m    1.6136p 
 -426.47475m  700.0000m    1.6224p 
 -426.37475m  700.0000m    1.6312p 
 -426.27475m  700.0000m    1.6401p 
 -426.17475m  700.0000m    1.6491p 
 -426.07475m  700.0000m    1.6581p 
 -425.97475m  700.0000m    1.6671p 
 -425.87475m  700.0000m    1.6762p 
 -425.77475m  700.0000m    1.6853p 
 -425.67475m  700.0000m    1.6945p 
 -425.57475m  700.0000m    1.7037p 
 -425.47475m  700.0000m    1.7130p 
 -425.37475m  700.0000m    1.7224p 
 -425.27475m  700.0000m    1.7318p 
 -425.17475m  700.0000m    1.7412p 
 -425.07475m  700.0000m    1.7507p 
 -424.97475m  700.0000m    1.7602p 
 -424.87475m  700.0000m    1.7698p 
 -424.77475m  700.0000m    1.7795p 
 -424.67475m  700.0000m    1.7892p 
 -424.57475m  700.0000m    1.7989p 
 -424.47475m  700.0000m    1.8087p 
 -424.37475m  700.0000m    1.8186p 
 -424.27475m  700.0000m    1.8285p 
 -424.17475m  700.0000m    1.8385p 
 -424.07475m  700.0000m    1.8485p 
 -423.97475m  700.0000m    1.8586p 
 -423.87475m  700.0000m    1.8687p 
 -423.77475m  700.0000m    1.8789p 
 -423.67475m  700.0000m    1.8892p 
 -423.57475m  700.0000m    1.8995p 
 -423.47475m  700.0000m    1.9098p 
 -423.37475m  700.0000m    1.9202p 
 -423.27475m  700.0000m    1.9307p 
 -423.17475m  700.0000m    1.9412p 
 -423.07475m  700.0000m    1.9518p 
 -422.97475m  700.0000m    1.9625p 
 -422.87475m  700.0000m    1.9732p 
 -422.77475m  700.0000m    1.9839p 
 -422.67475m  700.0000m    1.9948p 
 -422.57475m  700.0000m    2.0056p 
 -422.47475m  700.0000m    2.0166p 
 -422.37475m  700.0000m    2.0276p 
 -422.27475m  700.0000m    2.0386p 
 -422.17475m  700.0000m    2.0498p 
 -422.07475m  700.0000m    2.0609p 
 -421.97475m  700.0000m    2.0722p 
 -421.87475m  700.0000m    2.0835p 
 -421.77475m  700.0000m    2.0949p 
 -421.67475m  700.0000m    2.1063p 
 -421.57475m  700.0000m    2.1178p 
 -421.47475m  700.0000m    2.1293p 
 -421.37475m  700.0000m    2.1409p 
 -421.27475m  700.0000m    2.1526p 
 -421.17475m  700.0000m    2.1644p 
 -421.07475m  700.0000m    2.1762p 
 -420.97475m  700.0000m    2.1880p 
 -420.87475m  700.0000m    2.2000p 
 -420.77475m  700.0000m    2.2120p 
 -420.67475m  700.0000m    2.2241p 
 -420.57475m  700.0000m    2.2362p 
 -420.47475m  700.0000m    2.2484p 
 -420.37475m  700.0000m    2.2607p 
 -420.27475m  700.0000m    2.2730p 
 -420.17475m  700.0000m    2.2854p 
 -420.07475m  700.0000m    2.2979p 
 -419.97475m  700.0000m    2.3104p 
 -419.87475m  700.0000m    2.3230p 
 -419.77475m  700.0000m    2.3357p 
 -419.67475m  700.0000m    2.3484p 
 -419.57475m  700.0000m    2.3613p 
 -419.47475m  700.0000m    2.3741p 
 -419.37475m  700.0000m    2.3871p 
 -419.27475m  700.0000m    2.4001p 
 -419.17475m  700.0000m    2.4132p 
 -419.07475m  700.0000m    2.4264p 
 -418.97475m  700.0000m    2.4396p 
 -418.87475m  700.0000m    2.4529p 
 -418.77475m  700.0000m    2.4663p 
 -418.67475m  700.0000m    2.4798p 
 -418.57475m  700.0000m    2.4933p 
 -418.47475m  700.0000m    2.5069p 
 -418.37475m  700.0000m    2.5206p 
 -418.27475m  700.0000m    2.5344p 
 -418.17475m  700.0000m    2.5482p 
 -418.07475m  700.0000m    2.5621p 
 -417.97475m  700.0000m    2.5761p 
 -417.87475m  700.0000m    2.5902p 
 -417.77475m  700.0000m    2.6043p 
 -417.67475m  700.0000m    2.6185p 
 -417.57475m  700.0000m    2.6328p 
 -417.47475m  700.0000m    2.6472p 
 -417.37475m  700.0000m    2.6616p 
 -417.27475m  700.0000m    2.6762p 
 -417.17475m  700.0000m    2.6908p 
 -417.07475m  700.0000m    2.7055p 
 -416.97475m  700.0000m    2.7202p 
 -416.87475m  700.0000m    2.7351p 
 -416.77475m  700.0000m    2.7500p 
 -416.67475m  700.0000m    2.7650p 
 -416.57475m  700.0000m    2.7801p 
 -416.47475m  700.0000m    2.7953p 
 -416.37475m  700.0000m    2.8105p 
 -416.27475m  700.0000m    2.8259p 
 -416.17475m  700.0000m    2.8413p 
 -416.07475m  700.0000m    2.8568p 
 -415.97475m  700.0000m    2.8724p 
 -415.87475m  700.0000m    2.8881p 
 -415.77475m  700.0000m    2.9039p 
 -415.67475m  700.0000m    2.9197p 
 -415.57475m  700.0000m    2.9357p 
 -415.47475m  700.0000m    2.9517p 
 -415.37475m  700.0000m    2.9678p 
 -415.27475m  700.0000m    2.9840p 
 -415.17475m  700.0000m    3.0003p 
 -415.07475m  700.0000m    3.0167p 
 -414.97475m  700.0000m    3.0331p 
 -414.87475m  700.0000m    3.0497p 
 -414.77475m  700.0000m    3.0664p 
 -414.67475m  700.0000m    3.0831p 
 -414.57475m  700.0000m    3.0999p 
 -414.47475m  700.0000m    3.1169p 
 -414.37475m  700.0000m    3.1339p 
 -414.27475m  700.0000m    3.1510p 
 -414.17475m  700.0000m    3.1682p 
 -414.07475m  700.0000m    3.1855p 
 -413.97475m  700.0000m    3.2029p 
 -413.87475m  700.0000m    3.2204p 
 -413.77475m  700.0000m    3.2380p 
 -413.67475m  700.0000m    3.2556p 
 -413.57475m  700.0000m    3.2734p 
 -413.47475m  700.0000m    3.2913p 
 -413.37475m  700.0000m    3.3093p 
 -413.27475m  700.0000m    3.3273p 
 -413.17475m  700.0000m    3.3455p 
 -413.07475m  700.0000m    3.3638p 
 -412.97475m  700.0000m    3.3821p 
 -412.87475m  700.0000m    3.4006p 
 -412.77475m  700.0000m    3.4192p 
 -412.67475m  700.0000m    3.4378p 
 -412.57475m  700.0000m    3.4566p 
 -412.47475m  700.0000m    3.4755p 
 -412.37475m  700.0000m    3.4945p 
 -412.27475m  700.0000m    3.5135p 
 -412.17475m  700.0000m    3.5327p 
 -412.07475m  700.0000m    3.5520p 
 -411.97475m  700.0000m    3.5714p 
 -411.87475m  700.0000m    3.5909p 
 -411.77475m  700.0000m    3.6105p 
 -411.67475m  700.0000m    3.6302p 
 -411.57475m  700.0000m    3.6501p 
 -411.47475m  700.0000m    3.6700p 
 -411.37475m  700.0000m    3.6900p 
 -411.27475m  700.0000m    3.7102p 
 -411.17475m  700.0000m    3.7304p 
 -411.07475m  700.0000m    3.7508p 
 -410.97475m  700.0000m    3.7713p 
 -410.87475m  700.0000m    3.7919p 
 -410.77475m  700.0000m    3.8126p 
 -410.67475m  700.0000m    3.8334p 
 -410.57475m  700.0000m    3.8543p 
 -410.47475m  700.0000m    3.8754p 
 -410.37475m  700.0000m    3.8966p 
 -410.27475m  700.0000m    3.9178p 
 -410.17475m  700.0000m    3.9392p 
 -410.07475m  700.0000m    3.9607p 
 -409.97475m  700.0000m    3.9824p 
 -409.87475m  700.0000m    4.0041p 
 -409.77475m  700.0000m    4.0260p 
 -409.67475m  700.0000m    4.0480p 
 -409.57475m  700.0000m    4.0701p 
 -409.47475m  700.0000m    4.0923p 
 -409.37475m  700.0000m    4.1146p 
 -409.27475m  700.0000m    4.1371p 
 -409.17475m  700.0000m    4.1597p 
 -409.07475m  700.0000m    4.1824p 
 -408.97475m  700.0000m    4.2053p 
 -408.87475m  700.0000m    4.2282p 
 -408.77475m  700.0000m    4.2513p 
 -408.67475m  700.0000m    4.2745p 
 -408.57475m  700.0000m    4.2979p 
 -408.47475m  700.0000m    4.3213p 
 -408.37475m  700.0000m    4.3449p 
 -408.27475m  700.0000m    4.3687p 
 -408.17475m  700.0000m    4.3925p 
 -408.07475m  700.0000m    4.4165p 
 -407.97475m  700.0000m    4.4406p 
 -407.87475m  700.0000m    4.4649p 
 -407.77475m  700.0000m    4.4892p 
 -407.67475m  700.0000m    4.5138p 
 -407.57475m  700.0000m    4.5384p 
 -407.47475m  700.0000m    4.5632p 
 -407.37475m  700.0000m    4.5881p 
 -407.27475m  700.0000m    4.6132p 
 -407.17475m  700.0000m    4.6384p 
 -407.07475m  700.0000m    4.6637p 
 -406.97475m  700.0000m    4.6891p 
 -406.87475m  700.0000m    4.7148p 
 -406.77475m  700.0000m    4.7405p 
 -406.67475m  700.0000m    4.7664p 
 -406.57475m  700.0000m    4.7924p 
 -406.47475m  700.0000m    4.8186p 
 -406.37475m  700.0000m    4.8449p 
 -406.27475m  700.0000m    4.8713p 
 -406.17475m  700.0000m    4.8979p 
 -406.07475m  700.0000m    4.9247p 
 -405.97475m  700.0000m    4.9516p 
 -405.87475m  700.0000m    4.9786p 
 -405.77475m  700.0000m    5.0058p 
 -405.67475m  700.0000m    5.0331p 
 -405.57475m  700.0000m    5.0606p 
 -405.47475m  700.0000m    5.0883p 
 -405.37475m  700.0000m    5.1160p 
 -405.27475m  700.0000m    5.1440p 
 -405.17475m  700.0000m    5.1721p 
 -405.07475m  700.0000m    5.2003p 
 -404.97475m  700.0000m    5.2287p 
 -404.87475m  700.0000m    5.2572p 
 -404.77475m  700.0000m    5.2859p 
 -404.67475m  700.0000m    5.3148p 
 -404.57475m  700.0000m    5.3438p 
 -404.47475m  700.0000m    5.3730p 
 -404.37475m  700.0000m    5.4023p 
 -404.27475m  700.0000m    5.4318p 
 -404.17475m  700.0000m    5.4615p 
 -404.07475m  700.0000m    5.4913p 
 -403.97475m  700.0000m    5.5213p 
 -403.87475m  700.0000m    5.5514p 
 -403.77475m  700.0000m    5.5817p 
 -403.67475m  700.0000m    5.6122p 
 -403.57475m  700.0000m    5.6429p 
 -403.47475m  700.0000m    5.6737p 
 -403.37475m  700.0000m    5.7046p 
 -403.27475m  700.0000m    5.7358p 
 -403.17475m  700.0000m    5.7671p 
 -403.07475m  700.0000m    5.7986p 
 -402.97475m  700.0000m    5.8302p 
 -402.87475m  700.0000m    5.8621p 
 -402.77475m  700.0000m    5.8941p 
 -402.67475m  700.0000m    5.9263p 
 -402.57475m  700.0000m    5.9586p 
 -402.47475m  700.0000m    5.9911p 
 -402.37475m  700.0000m    6.0238p 
 -402.27475m  700.0000m    6.0567p 
 -402.17475m  700.0000m    6.0898p 
 -402.07475m  700.0000m    6.1230p 
 -401.97475m  700.0000m    6.1565p 
 -401.87475m  700.0000m    6.1901p 
 -401.77475m  700.0000m    6.2239p 
 -401.67475m  700.0000m    6.2578p 
 -401.57475m  700.0000m    6.2920p 
 -401.47475m  700.0000m    6.3263p 
 -401.37475m  700.0000m    6.3609p 
 -401.27475m  700.0000m    6.3956p 
 -401.17475m  700.0000m    6.4305p 
 -401.07475m  700.0000m    6.4656p 
 -400.97475m  700.0000m    6.5009p 
 -400.87475m  700.0000m    6.5364p 
 -400.77475m  700.0000m    6.5721p 
 -400.67475m  700.0000m    6.6079p 
 -400.57475m  700.0000m    6.6440p 
 -400.47475m  700.0000m    6.6803p 
 -400.37475m  700.0000m    6.7167p 
 -400.27475m  700.0000m    6.7534p 
 -400.17475m  700.0000m    6.7902p 
 -400.07475m  700.0000m    6.8273p 
 -399.97475m  700.0000m    6.8646p 
 -399.87475m  700.0000m    6.9020p 
 -399.77475m  700.0000m    6.9397p 
 -399.67475m  700.0000m    6.9776p 
 -399.57475m  700.0000m    7.0157p 
 -399.47475m  700.0000m    7.0539p 
 -399.37475m  700.0000m    7.0924p 
 -399.27475m  700.0000m    7.1311p 
 -399.17475m  700.0000m    7.1701p 
 -399.07475m  700.0000m    7.2092p 
 -398.97475m  700.0000m    7.2485p 
 -398.87475m  700.0000m    7.2881p 
 -398.77475m  700.0000m    7.3279p 
 -398.67475m  700.0000m    7.3678p 
 -398.57475m  700.0000m    7.4080p 
 -398.47475m  700.0000m    7.4485p 
 -398.37475m  700.0000m    7.4891p 
 -398.27475m  700.0000m    7.5300p 
 -398.17475m  700.0000m    7.5711p 
 -398.07475m  700.0000m    7.6124p 
 -397.97475m  700.0000m    7.6539p 
 -397.87475m  700.0000m    7.6957p 
 -397.77475m  700.0000m    7.7377p 
 -397.67475m  700.0000m    7.7799p 
 -397.57475m  700.0000m    7.8223p 
 -397.47475m  700.0000m    7.8650p 
 -397.37475m  700.0000m    7.9079p 
 -397.27475m  700.0000m    7.9511p 
 -397.17475m  700.0000m    7.9944p 
 -397.07475m  700.0000m    8.0381p 
 -396.97475m  700.0000m    8.0819p 
 -396.87475m  700.0000m    8.1260p 
 -396.77475m  700.0000m    8.1703p 
 -396.67475m  700.0000m    8.2149p 
 -396.57475m  700.0000m    8.2597p 
 -396.47475m  700.0000m    8.3048p 
 -396.37475m  700.0000m    8.3501p 
 -396.27475m  700.0000m    8.3956p 
 -396.17475m  700.0000m    8.4414p 
 -396.07475m  700.0000m    8.4875p 
 -395.97475m  700.0000m    8.5338p 
 -395.87475m  700.0000m    8.5803p 
 -395.77475m  700.0000m    8.6271p 
 -395.67475m  700.0000m    8.6742p 
 -395.57475m  700.0000m    8.7215p 
 -395.47475m  700.0000m    8.7691p 
 -395.37475m  700.0000m    8.8169p 
 -395.27475m  700.0000m    8.8650p 
 -395.17475m  700.0000m    8.9133p 
 -395.07475m  700.0000m    8.9619p 
 -394.97475m  700.0000m    9.0108p 
 -394.87475m  700.0000m    9.0600p 
 -394.77475m  700.0000m    9.1094p 
 -394.67475m  700.0000m    9.1591p 
 -394.57475m  700.0000m    9.2090p 
 -394.47475m  700.0000m    9.2592p 
 -394.37475m  700.0000m    9.3097p 
 -394.27475m  700.0000m    9.3605p 
 -394.17475m  700.0000m    9.4115p 
 -394.07475m  700.0000m    9.4628p 
 -393.97475m  700.0000m    9.5144p 
 -393.87475m  700.0000m    9.5663p 
 -393.77475m  700.0000m    9.6185p 
 -393.67475m  700.0000m    9.6709p 
 -393.57475m  700.0000m    9.7237p 
 -393.47475m  700.0000m    9.7767p 
 -393.37475m  700.0000m    9.8300p 
 -393.27475m  700.0000m    9.8836p 
 -393.17475m  700.0000m    9.9374p 
 -393.07475m  700.0000m    9.9916p 
 -392.97475m  700.0000m   10.0461p 
 -392.87475m  700.0000m   10.1009p 
 -392.77475m  700.0000m   10.1559p 
 -392.67475m  700.0000m   10.2113p 
 -392.57475m  700.0000m   10.2670p 
 -392.47475m  700.0000m   10.3229p 
 -392.37475m  700.0000m   10.3792p 
 -392.27475m  700.0000m   10.4358p 
 -392.17475m  700.0000m   10.4927p 
 -392.07475m  700.0000m   10.5498p 
 -391.97475m  700.0000m   10.6073p 
 -391.87475m  700.0000m   10.6652p 
 -391.77475m  700.0000m   10.7233p 
 -391.67475m  700.0000m   10.7817p 
 -391.57475m  700.0000m   10.8405p 
 -391.47475m  700.0000m   10.8996p 
 -391.37475m  700.0000m   10.9590p 
 -391.27475m  700.0000m   11.0187p 
 -391.17475m  700.0000m   11.0787p 
 -391.07475m  700.0000m   11.1391p 
 -390.97475m  700.0000m   11.1998p 
 -390.87475m  700.0000m   11.2608p 
 -390.77475m  700.0000m   11.3222p 
 -390.67475m  700.0000m   11.3839p 
 -390.57475m  700.0000m   11.4459p 
 -390.47475m  700.0000m   11.5083p 
 -390.37475m  700.0000m   11.5710p 
 -390.27475m  700.0000m   11.6340p 
 -390.17475m  700.0000m   11.6974p 
 -390.07475m  700.0000m   11.7611p 
 -389.97475m  700.0000m   11.8252p 
 -389.87475m  700.0000m   11.8896p 
 -389.77475m  700.0000m   11.9544p 
 -389.67475m  700.0000m   12.0195p 
 -389.57475m  700.0000m   12.0850p 
 -389.47475m  700.0000m   12.1508p 
 -389.37475m  700.0000m   12.2170p 
 -389.27475m  700.0000m   12.2836p 
 -389.17475m  700.0000m   12.3505p 
 -389.07475m  700.0000m   12.4177p 
 -388.97475m  700.0000m   12.4854p 
 -388.87475m  700.0000m   12.5534p 
 -388.77475m  700.0000m   12.6218p 
 -388.67475m  700.0000m   12.6905p 
 -388.57475m  700.0000m   12.7596p 
 -388.47475m  700.0000m   12.8291p 
 -388.37475m  700.0000m   12.8990p 
 -388.27475m  700.0000m   12.9692p 
 -388.17475m  700.0000m   13.0398p 
 -388.07475m  700.0000m   13.1108p 
 -387.97475m  700.0000m   13.1822p 
 -387.87475m  700.0000m   13.2540p 
 -387.77475m  700.0000m   13.3261p 
 -387.67475m  700.0000m   13.3987p 
 -387.57475m  700.0000m   13.4717p 
 -387.47475m  700.0000m   13.5450p 
 -387.37475m  700.0000m   13.6187p 
 -387.27475m  700.0000m   13.6929p 
 -387.17475m  700.0000m   13.7674p 
 -387.07475m  700.0000m   13.8424p 
 -386.97475m  700.0000m   13.9177p 
 -386.87475m  700.0000m   13.9935p 
 -386.77475m  700.0000m   14.0696p 
 -386.67475m  700.0000m   14.1462p 
 -386.57475m  700.0000m   14.2232p 
 -386.47475m  700.0000m   14.3006p 
 -386.37475m  700.0000m   14.3785p 
 -386.27475m  700.0000m   14.4567p 
 -386.17475m  700.0000m   14.5354p 
 -386.07475m  700.0000m   14.6145p 
 -385.97475m  700.0000m   14.6940p 
 -385.87475m  700.0000m   14.7740p 
 -385.77475m  700.0000m   14.8544p 
 -385.67475m  700.0000m   14.9352p 
 -385.57475m  700.0000m   15.0165p 
 -385.47475m  700.0000m   15.0982p 
 -385.37475m  700.0000m   15.1803p 
 -385.27475m  700.0000m   15.2629p 
 -385.17475m  700.0000m   15.3459p 
 -385.07475m  700.0000m   15.4294p 
 -384.97475m  700.0000m   15.5134p 
 -384.87475m  700.0000m   15.5978p 
 -384.77475m  700.0000m   15.6826p 
 -384.67475m  700.0000m   15.7679p 
 -384.57475m  700.0000m   15.8537p 
 -384.47475m  700.0000m   15.9399p 
 -384.37475m  700.0000m   16.0266p 
 -384.27475m  700.0000m   16.1138p 
 -384.17475m  700.0000m   16.2014p 
 -384.07475m  700.0000m   16.2895p 
 -383.97475m  700.0000m   16.3781p 
 -383.87475m  700.0000m   16.4672p 
 -383.77475m  700.0000m   16.5567p 
 -383.67475m  700.0000m   16.6467p 
 -383.57475m  700.0000m   16.7373p 
 -383.47475m  700.0000m   16.8283p 
 -383.37475m  700.0000m   16.9198p 
 -383.27475m  700.0000m   17.0118p 
 -383.17475m  700.0000m   17.1042p 
 -383.07475m  700.0000m   17.1972p 
 -382.97475m  700.0000m   17.2907p 
 -382.87475m  700.0000m   17.3847p 
 -382.77475m  700.0000m   17.4792p 
 -382.67475m  700.0000m   17.5742p 
 -382.57475m  700.0000m   17.6698p 
 -382.47475m  700.0000m   17.7658p 
 -382.37475m  700.0000m   17.8624p 
 -382.27475m  700.0000m   17.9594p 
 -382.17475m  700.0000m   18.0570p 
 -382.07475m  700.0000m   18.1552p 
 -381.97475m  700.0000m   18.2538p 
 -381.87475m  700.0000m   18.3530p 
 -381.77475m  700.0000m   18.4528p 
 -381.67475m  700.0000m   18.5530p 
 -381.57475m  700.0000m   18.6538p 
 -381.47475m  700.0000m   18.7552p 
 -381.37475m  700.0000m   18.8571p 
 -381.27475m  700.0000m   18.9595p 
 -381.17475m  700.0000m   19.0625p 
 -381.07475m  700.0000m   19.1661p 
 -380.97475m  700.0000m   19.2702p 
 -380.87475m  700.0000m   19.3749p 
 -380.77475m  700.0000m   19.4801p 
 -380.67475m  700.0000m   19.5859p 
 -380.57475m  700.0000m   19.6923p 
 -380.47475m  700.0000m   19.7992p 
 -380.37475m  700.0000m   19.9068p 
 -380.27475m  700.0000m   20.0149p 
 -380.17475m  700.0000m   20.1236p 
 -380.07475m  700.0000m   20.2328p 
 -379.97475m  700.0000m   20.3427p 
 -379.87475m  700.0000m   20.4532p 
 -379.77475m  700.0000m   20.5642p 
 -379.67475m  700.0000m   20.6759p 
 -379.57475m  700.0000m   20.7881p 
 -379.47475m  700.0000m   20.9010p 
 -379.37475m  700.0000m   21.0144p 
 -379.27475m  700.0000m   21.1285p 
 -379.17475m  700.0000m   21.2432p 
 -379.07475m  700.0000m   21.3585p 
 -378.97475m  700.0000m   21.4744p 
 -378.87475m  700.0000m   21.5910p 
 -378.77475m  700.0000m   21.7082p 
 -378.67475m  700.0000m   21.8260p 
 -378.57475m  700.0000m   21.9444p 
 -378.47475m  700.0000m   22.0635p 
 -378.37475m  700.0000m   22.1832p 
 -378.27475m  700.0000m   22.3036p 
 -378.17475m  700.0000m   22.4246p 
 -378.07475m  700.0000m   22.5463p 
 -377.97475m  700.0000m   22.6686p 
 -377.87475m  700.0000m   22.7916p 
 -377.77475m  700.0000m   22.9152p 
 -377.67475m  700.0000m   23.0395p 
 -377.57475m  700.0000m   23.1645p 
 -377.47475m  700.0000m   23.2901p 
 -377.37475m  700.0000m   23.4165p 
 -377.27475m  700.0000m   23.5435p 
 -377.17475m  700.0000m   23.6711p 
 -377.07475m  700.0000m   23.7995p 
 -376.97475m  700.0000m   23.9286p 
 -376.87475m  700.0000m   24.0583p 
 -376.77475m  700.0000m   24.1888p 
 -376.67475m  700.0000m   24.3199p 
 -376.57475m  700.0000m   24.4518p 
 -376.47475m  700.0000m   24.5843p 
 -376.37475m  700.0000m   24.7176p 
 -376.27475m  700.0000m   24.8516p 
 -376.17475m  700.0000m   24.9863p 
 -376.07475m  700.0000m   25.1218p 
 -375.97475m  700.0000m   25.2579p 
 -375.87475m  700.0000m   25.3948p 
 -375.77475m  700.0000m   25.5325p 
 -375.67475m  700.0000m   25.6708p 
 -375.57475m  700.0000m   25.8099p 
 -375.47475m  700.0000m   25.9498p 
 -375.37475m  700.0000m   26.0904p 
 -375.27475m  700.0000m   26.2318p 
 -375.17475m  700.0000m   26.3739p 
 -375.07475m  700.0000m   26.5168p 
 -374.97475m  700.0000m   26.6604p 
 -374.87475m  700.0000m   26.8049p 
 -374.77475m  700.0000m   26.9501p 
 -374.67475m  700.0000m   27.0960p 
 -374.57475m  700.0000m   27.2428p 
 -374.47475m  700.0000m   27.3904p 
 -374.37475m  700.0000m   27.5387p 
 -374.27475m  700.0000m   27.6878p 
 -374.17475m  700.0000m   27.8378p 
 -374.07475m  700.0000m   27.9885p 
 -373.97475m  700.0000m   28.1401p 
 -373.87475m  700.0000m   28.2924p 
 -373.77475m  700.0000m   28.4456p 
 -373.67475m  700.0000m   28.5996p 
 -373.57475m  700.0000m   28.7544p 
 -373.47475m  700.0000m   28.9101p 
 -373.37475m  700.0000m   29.0666p 
 -373.27475m  700.0000m   29.2239p 
 -373.17475m  700.0000m   29.3821p 
 -373.07475m  700.0000m   29.5411p 
 -372.97475m  700.0000m   29.7009p 
 -372.87475m  700.0000m   29.8617p 
 -372.77475m  700.0000m   30.0232p 
 -372.67475m  700.0000m   30.1857p 
 -372.57475m  700.0000m   30.3490p 
 -372.47475m  700.0000m   30.5132p 
 -372.37475m  700.0000m   30.6783p 
 -372.27475m  700.0000m   30.8442p 
 -372.17475m  700.0000m   31.0111p 
 -372.07475m  700.0000m   31.1788p 
 -371.97475m  700.0000m   31.3475p 
 -371.87475m  700.0000m   31.5170p 
 -371.77475m  700.0000m   31.6874p 
 -371.67475m  700.0000m   31.8588p 
 -371.57475m  700.0000m   32.0311p 
 -371.47475m  700.0000m   32.2043p 
 -371.37475m  700.0000m   32.3784p 
 -371.27475m  700.0000m   32.5534p 
 -371.17475m  700.0000m   32.7294p 
 -371.07475m  700.0000m   32.9064p 
 -370.97475m  700.0000m   33.0842p 
 -370.87475m  700.0000m   33.2631p 
 -370.77475m  700.0000m   33.4428p 
 -370.67475m  700.0000m   33.6236p 
 -370.57475m  700.0000m   33.8053p 
 -370.47475m  700.0000m   33.9880p 
 -370.37475m  700.0000m   34.1716p 
 -370.27475m  700.0000m   34.3563p 
 -370.17475m  700.0000m   34.5419p 
 -370.07475m  700.0000m   34.7285p 
 -369.97475m  700.0000m   34.9161p 
 -369.87475m  700.0000m   35.1047p 
 -369.77475m  700.0000m   35.2943p 
 -369.67475m  700.0000m   35.4850p 
 -369.57475m  700.0000m   35.6766p 
 -369.47475m  700.0000m   35.8693p 
 -369.37475m  700.0000m   36.0630p 
 -369.27475m  700.0000m   36.2577p 
 -369.17475m  700.0000m   36.4535p 
 -369.07475m  700.0000m   36.6503p 
 -368.97475m  700.0000m   36.8482p 
 -368.87475m  700.0000m   37.0471p 
 -368.77475m  700.0000m   37.2471p 
 -368.67475m  700.0000m   37.4482p 
 -368.57475m  700.0000m   37.6503p 
 -368.47475m  700.0000m   37.8535p 
 -368.37475m  700.0000m   38.0578p 
 -368.27475m  700.0000m   38.2631p 
 -368.17475m  700.0000m   38.4696p 
 -368.07475m  700.0000m   38.6772p 
 -367.97475m  700.0000m   38.8858p 
 -367.87475m  700.0000m   39.0956p 
 -367.77475m  700.0000m   39.3065p 
 -367.67475m  700.0000m   39.5186p 
 -367.57475m  700.0000m   39.7317p 
 -367.47475m  700.0000m   39.9460p 
 -367.37475m  700.0000m   40.1614p 
 -367.27475m  700.0000m   40.3780p 
 -367.17475m  700.0000m   40.5958p 
 -367.07475m  700.0000m   40.8147p 
 -366.97475m  700.0000m   41.0347p 
 -366.87475m  700.0000m   41.2559p 
 -366.77475m  700.0000m   41.4783p 
 -366.67475m  700.0000m   41.7019p 
 -366.57475m  700.0000m   41.9267p 
 -366.47475m  700.0000m   42.1527p 
 -366.37475m  700.0000m   42.3799p 
 -366.27475m  700.0000m   42.6083p 
 -366.17475m  700.0000m   42.8379p 
 -366.07475m  700.0000m   43.0687p 
 -365.97475m  700.0000m   43.3007p 
 -365.87475m  700.0000m   43.5340p 
 -365.77475m  700.0000m   43.7685p 
 -365.67475m  700.0000m   44.0043p 
 -365.57475m  700.0000m   44.2413p 
 -365.47475m  700.0000m   44.4796p 
 -365.37475m  700.0000m   44.7191p 
 -365.27475m  700.0000m   44.9600p 
 -365.17475m  700.0000m   45.2021p 
 -365.07475m  700.0000m   45.4454p 
 -364.97475m  700.0000m   45.6901p 
 -364.87475m  700.0000m   45.9361p 
 -364.77475m  700.0000m   46.1834p 
 -364.67475m  700.0000m   46.4320p 
 -364.57475m  700.0000m   46.6819p 
 -364.47475m  700.0000m   46.9331p 
 -364.37475m  700.0000m   47.1857p 
 -364.27475m  700.0000m   47.4396p 
 -364.17475m  700.0000m   47.6949p 
 -364.07475m  700.0000m   47.9515p 
 -363.97475m  700.0000m   48.2095p 
 -363.87475m  700.0000m   48.4688p 
 -363.77475m  700.0000m   48.7295p 
 -363.67475m  700.0000m   48.9916p 
 -363.57475m  700.0000m   49.2551p 
 -363.47475m  700.0000m   49.5200p 
 -363.37475m  700.0000m   49.7863p 
 -363.27475m  700.0000m   50.0540p 
 -363.17475m  700.0000m   50.3231p 
 -363.07475m  700.0000m   50.5937p 
 -362.97475m  700.0000m   50.8656p 
 -362.87475m  700.0000m   51.1391p 
 -362.77475m  700.0000m   51.4139p 
 -362.67475m  700.0000m   51.6902p 
 -362.57475m  700.0000m   51.9680p 
 -362.47475m  700.0000m   52.2473p 
 -362.37475m  700.0000m   52.5280p 
 -362.27475m  700.0000m   52.8102p 
 -362.17475m  700.0000m   53.0940p 
 -362.07475m  700.0000m   53.3792p 
 -361.97475m  700.0000m   53.6659p 
 -361.87475m  700.0000m   53.9541p 
 -361.77475m  700.0000m   54.2439p 
 -361.67475m  700.0000m   54.5352p 
 -361.57475m  700.0000m   54.8280p 
 -361.47475m  700.0000m   55.1224p 
 -361.37475m  700.0000m   55.4183p 
 -361.27475m  700.0000m   55.7158p 
 -361.17475m  700.0000m   56.0149p 
 -361.07475m  700.0000m   56.3156p 
 -360.97475m  700.0000m   56.6178p 
 -360.87475m  700.0000m   56.9217p 
 -360.77475m  700.0000m   57.2271p 
 -360.67475m  700.0000m   57.5342p 
 -360.57475m  700.0000m   57.8428p 
 -360.47475m  700.0000m   58.1531p 
 -360.37475m  700.0000m   58.4651p 
 -360.27475m  700.0000m   58.7787p 
 -360.17475m  700.0000m   59.0939p 
 -360.07475m  700.0000m   59.4108p 
 -359.97475m  700.0000m   59.7294p 
 -359.87475m  700.0000m   60.0497p 
 -359.77475m  700.0000m   60.3716p 
 -359.67475m  700.0000m   60.6953p 
 -359.57475m  700.0000m   61.0206p 
 -359.47475m  700.0000m   61.3477p 
 -359.37475m  700.0000m   61.6765p 
 -359.27475m  700.0000m   62.0070p 
 -359.17475m  700.0000m   62.3393p 
 -359.07475m  700.0000m   62.6733p 
 -358.97475m  700.0000m   63.0091p 
 -358.87475m  700.0000m   63.3466p 
 -358.77475m  700.0000m   63.6860p 
 -358.67475m  700.0000m   64.0271p 
 -358.57475m  700.0000m   64.3700p 
 -358.47475m  700.0000m   64.7147p 
 -358.37475m  700.0000m   65.0612p 
 -358.27475m  700.0000m   65.4096p 
 -358.17475m  700.0000m   65.7597p 
 -358.07475m  700.0000m   66.1118p 
 -357.97475m  700.0000m   66.4656p 
 -357.87475m  700.0000m   66.8214p 
 -357.77475m  700.0000m   67.1790p 
 -357.67475m  700.0000m   67.5385p 
 -357.57475m  700.0000m   67.8998p 
 -357.47475m  700.0000m   68.2631p 
 -357.37475m  700.0000m   68.6283p 
 -357.27475m  700.0000m   68.9954p 
 -357.17475m  700.0000m   69.3644p 
 -357.07475m  700.0000m   69.7354p 
 -356.97475m  700.0000m   70.1083p 
 -356.87475m  700.0000m   70.4832p 
 -356.77475m  700.0000m   70.8600p 
 -356.67475m  700.0000m   71.2389p 
 -356.57475m  700.0000m   71.6197p 
 -356.47475m  700.0000m   72.0025p 
 -356.37475m  700.0000m   72.3873p 
 -356.27475m  700.0000m   72.7741p 
 -356.17475m  700.0000m   73.1630p 
 -356.07475m  700.0000m   73.5539p 
 -355.97475m  700.0000m   73.9468p 
 -355.87475m  700.0000m   74.3419p 
 -355.77475m  700.0000m   74.7389p 
 -355.67475m  700.0000m   75.1381p 
 -355.57475m  700.0000m   75.5394p 
 -355.47475m  700.0000m   75.9427p 
 -355.37475m  700.0000m   76.3482p 
 -355.27475m  700.0000m   76.7558p 
 -355.17475m  700.0000m   77.1655p 
 -355.07475m  700.0000m   77.5774p 
 -354.97475m  700.0000m   77.9914p 
 -354.87475m  700.0000m   78.4076p 
 -354.77475m  700.0000m   78.8260p 
 -354.67475m  700.0000m   79.2465p 
 -354.57475m  700.0000m   79.6693p 
 -354.47475m  700.0000m   80.0942p 
 -354.37475m  700.0000m   80.5214p 
 -354.27475m  700.0000m   80.9509p 
 -354.17475m  700.0000m   81.3825p 
 -354.07475m  700.0000m   81.8165p 
 -353.97475m  700.0000m   82.2527p 
 -353.87475m  700.0000m   82.6911p 
 -353.77475m  700.0000m   83.1319p 
 -353.67475m  700.0000m   83.5750p 
 -353.57475m  700.0000m   84.0203p 
 -353.47475m  700.0000m   84.4680p 
 -353.37475m  700.0000m   84.9181p 
 -353.27475m  700.0000m   85.3705p 
 -353.17475m  700.0000m   85.8252p 
 -353.07475m  700.0000m   86.2823p 
 -352.97475m  700.0000m   86.7418p 
 -352.87475m  700.0000m   87.2037p 
 -352.77475m  700.0000m   87.6681p 
 -352.67475m  700.0000m   88.1348p 
 -352.57475m  700.0000m   88.6040p 
 -352.47475m  700.0000m   89.0756p 
 -352.37475m  700.0000m   89.5496p 
 -352.27475m  700.0000m   90.0262p 
 -352.17475m  700.0000m   90.5052p 
 -352.07475m  700.0000m   90.9867p 
 -351.97475m  700.0000m   91.4707p 
 -351.87475m  700.0000m   91.9573p 
 -351.77475m  700.0000m   92.4463p 
 -351.67475m  700.0000m   92.9379p 
 -351.57475m  700.0000m   93.4321p 
 -351.47475m  700.0000m   93.9289p 
 -351.37475m  700.0000m   94.4282p 
 -351.27475m  700.0000m   94.9301p 
 -351.17475m  700.0000m   95.4346p 
 -351.07475m  700.0000m   95.9418p 
 -350.97475m  700.0000m   96.4516p 
 -350.87475m  700.0000m   96.9640p 
 -350.77475m  700.0000m   97.4791p 
 -350.67475m  700.0000m   97.9969p 
 -350.57475m  700.0000m   98.5174p 
 -350.47475m  700.0000m   99.0405p 
 -350.37475m  700.0000m   99.5664p 
 -350.27475m  700.0000m  100.0950p 
 -350.17475m  700.0000m  100.6264p 
 -350.07475m  700.0000m  101.1605p 
 -349.97475m  700.0000m  101.6974p 
 -349.87475m  700.0000m  102.2371p 
 -349.77475m  700.0000m  102.7795p 
 -349.67475m  700.0000m  103.3248p 
 -349.57475m  700.0000m  103.8729p 
 -349.47475m  700.0000m  104.4238p 
 -349.37475m  700.0000m  104.9776p 
 -349.27475m  700.0000m  105.5343p 
 -349.17475m  700.0000m  106.0938p 
 -349.07475m  700.0000m  106.6563p 
 -348.97475m  700.0000m  107.2216p 
 -348.87475m  700.0000m  107.7899p 
 -348.77475m  700.0000m  108.3611p 
 -348.67475m  700.0000m  108.9353p 
 -348.57475m  700.0000m  109.5124p 
 -348.47475m  700.0000m  110.0926p 
 -348.37475m  700.0000m  110.6757p 
 -348.27475m  700.0000m  111.2618p 
 -348.17475m  700.0000m  111.8510p 
 -348.07475m  700.0000m  112.4432p 
 -347.97475m  700.0000m  113.0385p 
 -347.87475m  700.0000m  113.6368p 
 -347.77475m  700.0000m  114.2383p 
 -347.67475m  700.0000m  114.8428p 
 -347.57475m  700.0000m  115.4505p 
 -347.47475m  700.0000m  116.0612p 
 -347.37475m  700.0000m  116.6752p 
 -347.27475m  700.0000m  117.2923p 
 -347.17475m  700.0000m  117.9126p 
 -347.07475m  700.0000m  118.5361p 
 -346.97475m  700.0000m  119.1628p 
 -346.87475m  700.0000m  119.7927p 
 -346.77475m  700.0000m  120.4259p 
 -346.67475m  700.0000m  121.0623p 
 -346.57475m  700.0000m  121.7021p 
 -346.47475m  700.0000m  122.3451p 
 -346.37475m  700.0000m  122.9914p 
 -346.27475m  700.0000m  123.6410p 
 -346.17475m  700.0000m  124.2940p 
 -346.07475m  700.0000m  124.9504p 
 -345.97475m  700.0000m  125.6101p 
 -345.87475m  700.0000m  126.2732p 
 -345.77475m  700.0000m  126.9397p 
 -345.67475m  700.0000m  127.6097p 
 -345.57475m  700.0000m  128.2831p 
 -345.47475m  700.0000m  128.9599p 
 -345.37475m  700.0000m  129.6402p 
 -345.27475m  700.0000m  130.3240p 
 -345.17475m  700.0000m  131.0114p 
 -345.07475m  700.0000m  131.7022p 
 -344.97475m  700.0000m  132.3966p 
 -344.87475m  700.0000m  133.0946p 
 -344.77475m  700.0000m  133.7961p 
 -344.67475m  700.0000m  134.5013p 
 -344.57475m  700.0000m  135.2100p 
 -344.47475m  700.0000m  135.9224p 
 -344.37475m  700.0000m  136.6384p 
 -344.27475m  700.0000m  137.3581p 
 -344.17475m  700.0000m  138.0815p 
 -344.07475m  700.0000m  138.8086p 
 -343.97475m  700.0000m  139.5394p 
 -343.87475m  700.0000m  140.2740p 
 -343.77475m  700.0000m  141.0123p 
 -343.67475m  700.0000m  141.7543p 
 -343.57475m  700.0000m  142.5002p 
 -343.47475m  700.0000m  143.2499p 
 -343.37475m  700.0000m  144.0034p 
 -343.27475m  700.0000m  144.7608p 
 -343.17475m  700.0000m  145.5221p 
 -343.07475m  700.0000m  146.2872p 
 -342.97475m  700.0000m  147.0562p 
 -342.87475m  700.0000m  147.8292p 
 -342.77475m  700.0000m  148.6061p 
 -342.67475m  700.0000m  149.3869p 
 -342.57475m  700.0000m  150.1718p 
 -342.47475m  700.0000m  150.9607p 
 -342.37475m  700.0000m  151.7535p 
 -342.27475m  700.0000m  152.5504p 
 -342.17475m  700.0000m  153.3514p 
 -342.07475m  700.0000m  154.1565p 
 -341.97475m  700.0000m  154.9656p 
 -341.87475m  700.0000m  155.7789p 
 -341.77475m  700.0000m  156.5963p 
 -341.67475m  700.0000m  157.4179p 
 -341.57475m  700.0000m  158.2437p 
 -341.47475m  700.0000m  159.0736p 
 -341.37475m  700.0000m  159.9078p 
 -341.27475m  700.0000m  160.7462p 
 -341.17475m  700.0000m  161.5889p 
 -341.07475m  700.0000m  162.4358p 
 -340.97475m  700.0000m  163.2871p 
 -340.87475m  700.0000m  164.1427p 
 -340.77475m  700.0000m  165.0026p 
 -340.67475m  700.0000m  165.8669p 
 -340.57475m  700.0000m  166.7356p 
 -340.47475m  700.0000m  167.6087p 
 -340.37475m  700.0000m  168.4862p 
 -340.27475m  700.0000m  169.3681p 
 -340.17475m  700.0000m  170.2546p 
 -340.07475m  700.0000m  171.1455p 
 -339.97475m  700.0000m  172.0409p 
 -339.87475m  700.0000m  172.9409p 
 -339.77475m  700.0000m  173.8454p 
 -339.67475m  700.0000m  174.7545p 
 -339.57475m  700.0000m  175.6682p 
 -339.47475m  700.0000m  176.5865p 
 -339.37475m  700.0000m  177.5095p 
 -339.27475m  700.0000m  178.4371p 
 -339.17475m  700.0000m  179.3694p 
 -339.07475m  700.0000m  180.3065p 
 -338.97475m  700.0000m  181.2482p 
 -338.87475m  700.0000m  182.1948p 
 -338.77475m  700.0000m  183.1461p 
 -338.67475m  700.0000m  184.1022p 
 -338.57475m  700.0000m  185.0631p 
 -338.47475m  700.0000m  186.0289p 
 -338.37475m  700.0000m  186.9995p 
 -338.27475m  700.0000m  187.9750p 
 -338.17475m  700.0000m  188.9555p 
 -338.07475m  700.0000m  189.9409p 
 -337.97475m  700.0000m  190.9312p 
 -337.87475m  700.0000m  191.9266p 
 -337.77475m  700.0000m  192.9269p 
 -337.67475m  700.0000m  193.9323p 
 -337.57475m  700.0000m  194.9427p 
 -337.47475m  700.0000m  195.9583p 
 -337.37475m  700.0000m  196.9789p 
 -337.27475m  700.0000m  198.0046p 
 -337.17475m  700.0000m  199.0356p 
 -337.07475m  700.0000m  200.0717p 
 -336.97475m  700.0000m  201.1129p 
 -336.87475m  700.0000m  202.1595p 
 -336.77475m  700.0000m  203.2112p 
 -336.67475m  700.0000m  204.2683p 
 -336.57475m  700.0000m  205.3306p 
 -336.47475m  700.0000m  206.3983p 
 -336.37475m  700.0000m  207.4714p 
 -336.27475m  700.0000m  208.5498p 
 -336.17475m  700.0000m  209.6336p 
 -336.07475m  700.0000m  210.7228p 
 -335.97475m  700.0000m  211.8175p 
 -335.87475m  700.0000m  212.9177p 
 -335.77475m  700.0000m  214.0233p 
 -335.67475m  700.0000m  215.1345p 
 -335.57475m  700.0000m  216.2513p 
 -335.47475m  700.0000m  217.3736p 
 -335.37475m  700.0000m  218.5016p 
 -335.27475m  700.0000m  219.6352p 
 -335.17475m  700.0000m  220.7744p 
 -335.07475m  700.0000m  221.9193p 
 -334.97475m  700.0000m  223.0700p 
 -334.87475m  700.0000m  224.2264p 
 -334.77475m  700.0000m  225.3885p 
 -334.67475m  700.0000m  226.5565p 
 -334.57475m  700.0000m  227.7302p 
 -334.47475m  700.0000m  228.9098p 
 -334.37475m  700.0000m  230.0953p 
 -334.27475m  700.0000m  231.2867p 
 -334.17475m  700.0000m  232.4840p 
 -334.07475m  700.0000m  233.6873p 
 -333.97475m  700.0000m  234.8966p 
 -333.87475m  700.0000m  236.1118p 
 -333.77475m  700.0000m  237.3332p 
 -333.67475m  700.0000m  238.5605p 
 -333.57475m  700.0000m  239.7940p 
 -333.47475m  700.0000m  241.0336p 
 -333.37475m  700.0000m  242.2794p 
 -333.27475m  700.0000m  243.5313p 
 -333.17475m  700.0000m  244.7895p 
 -333.07475m  700.0000m  246.0539p 
 -332.97475m  700.0000m  247.3245p 
 -332.87475m  700.0000m  248.6015p 
 -332.77475m  700.0000m  249.8848p 
 -332.67475m  700.0000m  251.1744p 
 -332.57475m  700.0000m  252.4704p 
 -332.47475m  700.0000m  253.7728p 
 -332.37475m  700.0000m  255.0817p 
 -332.27475m  700.0000m  256.3971p 
 -332.17475m  700.0000m  257.7189p 
 -332.07475m  700.0000m  259.0473p 
 -331.97475m  700.0000m  260.3823p 
 -331.87475m  700.0000m  261.7238p 
 -331.77475m  700.0000m  263.0720p 
 -331.67475m  700.0000m  264.4268p 
 -331.57475m  700.0000m  265.7883p 
 -331.47475m  700.0000m  267.1565p 
 -331.37475m  700.0000m  268.5314p 
 -331.27475m  700.0000m  269.9132p 
 -331.17475m  700.0000m  271.3017p 
 -331.07475m  700.0000m  272.6971p 
 -330.97475m  700.0000m  274.0993p 
 -330.87475m  700.0000m  275.5085p 
 -330.77475m  700.0000m  276.9245p 
 -330.67475m  700.0000m  278.3476p 
 -330.57475m  700.0000m  279.7776p 
 -330.47475m  700.0000m  281.2147p 
 -330.37475m  700.0000m  282.6588p 
 -330.27475m  700.0000m  284.1100p 
 -330.17475m  700.0000m  285.5683p 
 -330.07475m  700.0000m  287.0338p 
 -329.97475m  700.0000m  288.5065p 
 -329.87475m  700.0000m  289.9864p 
 -329.77475m  700.0000m  291.4735p 
 -329.67475m  700.0000m  292.9679p 
 -329.57475m  700.0000m  294.4697p 
 -329.47475m  700.0000m  295.9788p 
 -329.37475m  700.0000m  297.4953p 
 -329.27475m  700.0000m  299.0192p 
 -329.17475m  700.0000m  300.5505p 
 -329.07475m  700.0000m  302.0893p 
 -328.97475m  700.0000m  303.6357p 
 -328.87475m  700.0000m  305.1896p 
 -328.77475m  700.0000m  306.7511p 
 -328.67475m  700.0000m  308.3202p 
 -328.57475m  700.0000m  309.8970p 
 -328.47475m  700.0000m  311.4814p 
 -328.37475m  700.0000m  313.0736p 
 -328.27475m  700.0000m  314.6736p 
 -328.17475m  700.0000m  316.2813p 
 -328.07475m  700.0000m  317.8968p 
 -327.97475m  700.0000m  319.5203p 
 -327.87475m  700.0000m  321.1516p 
 -327.77475m  700.0000m  322.7908p 
 -327.67475m  700.0000m  324.4381p 
 -327.57475m  700.0000m  326.0933p 
 -327.47475m  700.0000m  327.7566p 
 -327.37475m  700.0000m  329.4279p 
 -327.27475m  700.0000m  331.1073p 
 -327.17475m  700.0000m  332.7949p 
 -327.07475m  700.0000m  334.4907p 
 -326.97475m  700.0000m  336.1947p 
 -326.87475m  700.0000m  337.9070p 
 -326.77475m  700.0000m  339.6276p 
 -326.67475m  700.0000m  341.3564p 
 -326.57475m  700.0000m  343.0937p 
 -326.47475m  700.0000m  344.8393p 
 -326.37475m  700.0000m  346.5934p 
 -326.27475m  700.0000m  348.3560p 
 -326.17475m  700.0000m  350.1271p 
 -326.07475m  700.0000m  351.9068p 
 -325.97475m  700.0000m  353.6950p 
 -325.87475m  700.0000m  355.4919p 
 -325.77475m  700.0000m  357.2974p 
 -325.67475m  700.0000m  359.1116p 
 -325.57475m  700.0000m  360.9346p 
 -325.47475m  700.0000m  362.7664p 
 -325.37475m  700.0000m  364.6070p 
 -325.27475m  700.0000m  366.4564p 
 -325.17475m  700.0000m  368.3148p 
 -325.07475m  700.0000m  370.1821p 
 -324.97475m  700.0000m  372.0583p 
 -324.87475m  700.0000m  373.9436p 
 -324.77475m  700.0000m  375.8379p 
 -324.67475m  700.0000m  377.7414p 
 -324.57475m  700.0000m  379.6539p 
 -324.47475m  700.0000m  381.5757p 
 -324.37475m  700.0000m  383.5066p 
 -324.27475m  700.0000m  385.4468p 
 -324.17475m  700.0000m  387.3963p 
 -324.07475m  700.0000m  389.3552p 
 -323.97475m  700.0000m  391.3234p 
 -323.87475m  700.0000m  393.3010p 
 -323.77475m  700.0000m  395.2881p 
 -323.67475m  700.0000m  397.2847p 
 -323.57475m  700.0000m  399.2908p 
 -323.47475m  700.0000m  401.3065p 
 -323.37475m  700.0000m  403.3319p 
 -323.27475m  700.0000m  405.3669p 
 -323.17475m  700.0000m  407.4116p 
 -323.07475m  700.0000m  409.4660p 
 -322.97475m  700.0000m  411.5303p 
 -322.87475m  700.0000m  413.6043p 
 -322.77475m  700.0000m  415.6883p 
 -322.67475m  700.0000m  417.7821p 
 -322.57475m  700.0000m  419.8860p 
 -322.47475m  700.0000m  421.9998p 
 -322.37475m  700.0000m  424.1237p 
 -322.27475m  700.0000m  426.2577p 
 -322.17475m  700.0000m  428.4018p 
 -322.07475m  700.0000m  430.5560p 
 -321.97475m  700.0000m  432.7205p 
 -321.87475m  700.0000m  434.8953p 
 -321.77475m  700.0000m  437.0804p 
 -321.67475m  700.0000m  439.2758p 
 -321.57475m  700.0000m  441.4816p 
 -321.47475m  700.0000m  443.6978p 
 -321.37475m  700.0000m  445.9246p 
 -321.27475m  700.0000m  448.1619p 
 -321.17475m  700.0000m  450.4097p 
 -321.07475m  700.0000m  452.6682p 
 -320.97475m  700.0000m  454.9373p 
 -320.87475m  700.0000m  457.2171p 
 -320.77475m  700.0000m  459.5077p 
 -320.67475m  700.0000m  461.8091p 
 -320.57475m  700.0000m  464.1213p 
 -320.47475m  700.0000m  466.4445p 
 -320.37475m  700.0000m  468.7785p 
 -320.27475m  700.0000m  471.1236p 
 -320.17475m  700.0000m  473.4797p 
 -320.07475m  700.0000m  475.8468p 
 -319.97475m  700.0000m  478.2251p 
 -319.87475m  700.0000m  480.6146p 
 -319.77475m  700.0000m  483.0152p 
 -319.67475m  700.0000m  485.4272p 
 -319.57475m  700.0000m  487.8504p 
 -319.47475m  700.0000m  490.2850p 
 -319.37475m  700.0000m  492.7310p 
 -319.27475m  700.0000m  495.1885p 
 -319.17475m  700.0000m  497.6575p 
 -319.07475m  700.0000m  500.1380p 
 -318.97475m  700.0000m  502.6301p 
 -318.87475m  700.0000m  505.1339p 
 -318.77475m  700.0000m  507.6494p 
 -318.67475m  700.0000m  510.1766p 
 -318.57475m  700.0000m  512.7156p 
 -318.47475m  700.0000m  515.2665p 
 -318.37475m  700.0000m  517.8292p 
 -318.27475m  700.0000m  520.4039p 
 -318.17475m  700.0000m  522.9906p 
 -318.07475m  700.0000m  525.5893p 
 -317.97475m  700.0000m  528.2002p 
 -317.87475m  700.0000m  530.8231p 
 -317.77475m  700.0000m  533.4583p 
 -317.67475m  700.0000m  536.1057p 
 -317.57475m  700.0000m  538.7653p 
 -317.47475m  700.0000m  541.4374p 
 -317.37475m  700.0000m  544.1218p 
 -317.27475m  700.0000m  546.8187p 
 -317.17475m  700.0000m  549.5280p 
 -317.07475m  700.0000m  552.2500p 
 -316.97475m  700.0000m  554.9845p 
 -316.87475m  700.0000m  557.7316p 
 -316.77475m  700.0000m  560.4915p 
 -316.67475m  700.0000m  563.2641p 
 -316.57475m  700.0000m  566.0496p 
 -316.47475m  700.0000m  568.8479p 
 -316.37475m  700.0000m  571.6591p 
 -316.27475m  700.0000m  574.4832p 
 -316.17475m  700.0000m  577.3204p 
 -316.07475m  700.0000m  580.1707p 
 -315.97475m  700.0000m  583.0341p 
 -315.87475m  700.0000m  585.9106p 
 -315.77475m  700.0000m  588.8004p 
 -315.67475m  700.0000m  591.7035p 
 -315.57475m  700.0000m  594.6199p 
 -315.47475m  700.0000m  597.5497p 
 -315.37475m  700.0000m  600.4930p 
 -315.27475m  700.0000m  603.4497p 
 -315.17475m  700.0000m  606.4201p 
 -315.07475m  700.0000m  609.4040p 
 -314.97475m  700.0000m  612.4016p 
 -314.87475m  700.0000m  615.4129p 
 -314.77475m  700.0000m  618.4380p 
 -314.67475m  700.0000m  621.4769p 
 -314.57475m  700.0000m  624.5297p 
 -314.47475m  700.0000m  627.5965p 
 -314.37475m  700.0000m  630.6772p 
 -314.27475m  700.0000m  633.7720p 
 -314.17475m  700.0000m  636.8809p 
 -314.07475m  700.0000m  640.0040p 
 -313.97475m  700.0000m  643.1413p 
 -313.87475m  700.0000m  646.2929p 
 -313.77475m  700.0000m  649.4588p 
 -313.67475m  700.0000m  652.6391p 
 -313.57475m  700.0000m  655.8339p 
 -313.47475m  700.0000m  659.0432p 
 -313.37475m  700.0000m  662.2670p 
 -313.27475m  700.0000m  665.5055p 
 -313.17475m  700.0000m  668.7587p 
 -313.07475m  700.0000m  672.0265p 
 -312.97475m  700.0000m  675.3092p 
 -312.87475m  700.0000m  678.6068p 
 -312.77475m  700.0000m  681.9192p 
 -312.67475m  700.0000m  685.2467p 
 -312.57475m  700.0000m  688.5892p 
 -312.47475m  700.0000m  691.9467p 
 -312.37475m  700.0000m  695.3194p 
 -312.27475m  700.0000m  698.7074p 
 -312.17475m  700.0000m  702.1106p 
 -312.07475m  700.0000m  705.5291p 
 -311.97475m  700.0000m  708.9630p 
 -311.87475m  700.0000m  712.4124p 
 -311.77475m  700.0000m  715.8773p 
 -311.67475m  700.0000m  719.3577p 
 -311.57475m  700.0000m  722.8538p 
 -311.47475m  700.0000m  726.3656p 
 -311.37475m  700.0000m  729.8932p 
 -311.27475m  700.0000m  733.4365p 
 -311.17475m  700.0000m  736.9957p 
 -311.07475m  700.0000m  740.5709p 
 -310.97475m  700.0000m  744.1621p 
 -310.87475m  700.0000m  747.7693p 
 -310.77475m  700.0000m  751.3927p 
 -310.67475m  700.0000m  755.0322p 
 -310.57475m  700.0000m  758.6880p 
 -310.47475m  700.0000m  762.3601p 
 -310.37475m  700.0000m  766.0486p 
 -310.27475m  700.0000m  769.7535p 
 -310.17475m  700.0000m  773.4749p 
 -310.07475m  700.0000m  777.2128p 
 -309.97475m  700.0000m  780.9674p 
 -309.87475m  700.0000m  784.7387p 
 -309.77475m  700.0000m  788.5268p 
 -309.67475m  700.0000m  792.3316p 
 -309.57475m  700.0000m  796.1534p 
 -309.47475m  700.0000m  799.9921p 
 -309.37475m  700.0000m  803.8478p 
 -309.27475m  700.0000m  807.7205p 
 -309.17475m  700.0000m  811.6104p 
 -309.07475m  700.0000m  815.5175p 
 -308.97475m  700.0000m  819.4419p 
 -308.87475m  700.0000m  823.3836p 
 -308.77475m  700.0000m  827.3428p 
 -308.67475m  700.0000m  831.3193p 
 -308.57475m  700.0000m  835.3135p 
 -308.47475m  700.0000m  839.3252p 
 -308.37475m  700.0000m  843.3545p 
 -308.27475m  700.0000m  847.4017p 
 -308.17475m  700.0000m  851.4666p 
 -308.07475m  700.0000m  855.5493p 
 -307.97475m  700.0000m  859.6500p 
 -307.87475m  700.0000m  863.7687p 
 -307.77475m  700.0000m  867.9054p 
 -307.67475m  700.0000m  872.0603p 
 -307.57475m  700.0000m  876.2334p 
 -307.47475m  700.0000m  880.4248p 
 -307.37475m  700.0000m  884.6344p 
 -307.27475m  700.0000m  888.8625p 
 -307.17475m  700.0000m  893.1091p 
 -307.07475m  700.0000m  897.3742p 
 -306.97475m  700.0000m  901.6579p 
 -306.87475m  700.0000m  905.9602p 
 -306.77475m  700.0000m  910.2813p 
 -306.67475m  700.0000m  914.6213p 
 -306.57475m  700.0000m  918.9801p 
 -306.47475m  700.0000m  923.3578p 
 -306.37475m  700.0000m  927.7546p 
 -306.27475m  700.0000m  932.1705p 
 -306.17475m  700.0000m  936.6055p 
 -306.07475m  700.0000m  941.0597p 
 -305.97475m  700.0000m  945.5333p 
 -305.87475m  700.0000m  950.0262p 
 -305.77475m  700.0000m  954.5386p 
 -305.67475m  700.0000m  959.0705p 
 -305.57475m  700.0000m  963.6219p 
 -305.47475m  700.0000m  968.1930p 
 -305.37475m  700.0000m  972.7839p 
 -305.27475m  700.0000m  977.3945p 
 -305.17475m  700.0000m  982.0250p 
 -305.07475m  700.0000m  986.6754p 
 -304.97475m  700.0000m  991.3458p 
 -304.87475m  700.0000m  996.0364p 
 -304.77475m  700.0000m    1.0007n 
 -304.67475m  700.0000m    1.0055n 
 -304.57475m  700.0000m    1.0102n 
 -304.47475m  700.0000m    1.0150n 
 -304.37475m  700.0000m    1.0198n 
 -304.27475m  700.0000m    1.0246n 
 -304.17475m  700.0000m    1.0294n 
 -304.07475m  700.0000m    1.0343n 
 -303.97475m  700.0000m    1.0392n 
 -303.87475m  700.0000m    1.0441n 
 -303.77475m  700.0000m    1.0490n 
 -303.67475m  700.0000m    1.0539n 
 -303.57475m  700.0000m    1.0589n 
 -303.47475m  700.0000m    1.0639n 
 -303.37475m  700.0000m    1.0689n 
 -303.27475m  700.0000m    1.0739n 
 -303.17475m  700.0000m    1.0789n 
 -303.07475m  700.0000m    1.0840n 
 -302.97475m  700.0000m    1.0891n 
 -302.87475m  700.0000m    1.0942n 
 -302.77475m  700.0000m    1.0993n 
 -302.67475m  700.0000m    1.1045n 
 -302.57475m  700.0000m    1.1096n 
 -302.47475m  700.0000m    1.1148n 
 -302.37475m  700.0000m    1.1200n 
 -302.27475m  700.0000m    1.1253n 
 -302.17475m  700.0000m    1.1305n 
 -302.07475m  700.0000m    1.1358n 
 -301.97475m  700.0000m    1.1411n 
 -301.87475m  700.0000m    1.1465n 
 -301.77475m  700.0000m    1.1518n 
 -301.67475m  700.0000m    1.1572n 
 -301.57475m  700.0000m    1.1626n 
 -301.47475m  700.0000m    1.1680n 
 -301.37475m  700.0000m    1.1734n 
 -301.27475m  700.0000m    1.1789n 
 -301.17475m  700.0000m    1.1844n 
 -301.07475m  700.0000m    1.1899n 
 -300.97475m  700.0000m    1.1954n 
 -300.87475m  700.0000m    1.2010n 
 -300.77475m  700.0000m    1.2065n 
 -300.67475m  700.0000m    1.2121n 
 -300.57475m  700.0000m    1.2178n 
 -300.47475m  700.0000m    1.2234n 
 -300.37475m  700.0000m    1.2291n 
 -300.27475m  700.0000m    1.2348n 
 -300.17475m  700.0000m    1.2405n 
 -300.07475m  700.0000m    1.2462n 
 -299.97475m  700.0000m    1.2520n 
 -299.87475m  700.0000m    1.2578n 
 -299.77475m  700.0000m    1.2636n 
 -299.67475m  700.0000m    1.2694n 
 -299.57475m  700.0000m    1.2753n 
 -299.47475m  700.0000m    1.2812n 
 -299.37475m  700.0000m    1.2871n 
 -299.27475m  700.0000m    1.2930n 
 -299.17475m  700.0000m    1.2990n 
 -299.07475m  700.0000m    1.3050n 
 -298.97475m  700.0000m    1.3110n 
 -298.87475m  700.0000m    1.3170n 
 -298.77475m  700.0000m    1.3231n 
 -298.67475m  700.0000m    1.3292n 
 -298.57475m  700.0000m    1.3353n 
 -298.47475m  700.0000m    1.3414n 
 -298.37475m  700.0000m    1.3476n 
 -298.27475m  700.0000m    1.3537n 
 -298.17475m  700.0000m    1.3599n 
 -298.07475m  700.0000m    1.3662n 
 -297.97475m  700.0000m    1.3724n 
 -297.87475m  700.0000m    1.3787n 
 -297.77475m  700.0000m    1.3850n 
 -297.67475m  700.0000m    1.3914n 
 -297.57475m  700.0000m    1.3977n 
 -297.47475m  700.0000m    1.4041n 
 -297.37475m  700.0000m    1.4105n 
 -297.27475m  700.0000m    1.4170n 
 -297.17475m  700.0000m    1.4234n 
 -297.07475m  700.0000m    1.4299n 
 -296.97475m  700.0000m    1.4364n 
 -296.87475m  700.0000m    1.4430n 
 -296.77475m  700.0000m    1.4496n 
 -296.67475m  700.0000m    1.4561n 
 -296.57475m  700.0000m    1.4628n 
 -296.47475m  700.0000m    1.4694n 
 -296.37475m  700.0000m    1.4761n 
 -296.27475m  700.0000m    1.4828n 
 -296.17475m  700.0000m    1.4895n 
 -296.07475m  700.0000m    1.4963n 
 -295.97475m  700.0000m    1.5031n 
 -295.87475m  700.0000m    1.5099n 
 -295.77475m  700.0000m    1.5167n 
 -295.67475m  700.0000m    1.5236n 
 -295.57475m  700.0000m    1.5305n 
 -295.47475m  700.0000m    1.5374n 
 -295.37475m  700.0000m    1.5443n 
 -295.27475m  700.0000m    1.5513n 
 -295.17475m  700.0000m    1.5583n 
 -295.07475m  700.0000m    1.5653n 
 -294.97475m  700.0000m    1.5724n 
 -294.87475m  700.0000m    1.5795n 
 -294.77475m  700.0000m    1.5866n 
 -294.67475m  700.0000m    1.5938n 
 -294.57475m  700.0000m    1.6009n 
 -294.47475m  700.0000m    1.6081n 
 -294.37475m  700.0000m    1.6154n 
 -294.27475m  700.0000m    1.6226n 
 -294.17475m  700.0000m    1.6299n 
 -294.07475m  700.0000m    1.6372n 
 -293.97475m  700.0000m    1.6445n 
 -293.87475m  700.0000m    1.6519n 
 -293.77475m  700.0000m    1.6593n 
 -293.67475m  700.0000m    1.6667n 
 -293.57475m  700.0000m    1.6742n 
 -293.47475m  700.0000m    1.6817n 
 -293.37475m  700.0000m    1.6892n 
 -293.27475m  700.0000m    1.6968n 
 -293.17475m  700.0000m    1.7043n 
 -293.07475m  700.0000m    1.7119n 
 -292.97475m  700.0000m    1.7196n 
 -292.87475m  700.0000m    1.7272n 
 -292.77475m  700.0000m    1.7349n 
 -292.67475m  700.0000m    1.7427n 
 -292.57475m  700.0000m    1.7504n 
 -292.47475m  700.0000m    1.7582n 
 -292.37475m  700.0000m    1.7660n 
 -292.27475m  700.0000m    1.7739n 
 -292.17475m  700.0000m    1.7817n 
 -292.07475m  700.0000m    1.7896n 
 -291.97475m  700.0000m    1.7976n 
 -291.87475m  700.0000m    1.8055n 
 -291.77475m  700.0000m    1.8135n 
 -291.67475m  700.0000m    1.8216n 
 -291.57475m  700.0000m    1.8296n 
 -291.47475m  700.0000m    1.8377n 
 -291.37475m  700.0000m    1.8458n 
 -291.27475m  700.0000m    1.8540n 
 -291.17475m  700.0000m    1.8622n 
 -291.07475m  700.0000m    1.8704n 
 -290.97475m  700.0000m    1.8786n 
 -290.87475m  700.0000m    1.8869n 
 -290.77475m  700.0000m    1.8952n 
 -290.67475m  700.0000m    1.9035n 
 -290.57475m  700.0000m    1.9119n 
 -290.47475m  700.0000m    1.9203n 
 -290.37475m  700.0000m    1.9288n 
 -290.27475m  700.0000m    1.9372n 
 -290.17475m  700.0000m    1.9457n 
 -290.07475m  700.0000m    1.9543n 
 -289.97475m  700.0000m    1.9628n 
 -289.87475m  700.0000m    1.9714n 
 -289.77475m  700.0000m    1.9800n 
 -289.67475m  700.0000m    1.9887n 
 -289.57475m  700.0000m    1.9974n 
 -289.47475m  700.0000m    2.0061n 
 -289.37475m  700.0000m    2.0149n 
 -289.27475m  700.0000m    2.0237n 
 -289.17475m  700.0000m    2.0325n 
 -289.07475m  700.0000m    2.0414n 
 -288.97475m  700.0000m    2.0503n 
 -288.87475m  700.0000m    2.0592n 
 -288.77475m  700.0000m    2.0681n 
 -288.67475m  700.0000m    2.0771n 
 -288.57475m  700.0000m    2.0861n 
 -288.47475m  700.0000m    2.0952n 
 -288.37475m  700.0000m    2.1043n 
 -288.27475m  700.0000m    2.1134n 
 -288.17475m  700.0000m    2.1226n 
 -288.07475m  700.0000m    2.1318n 
 -287.97475m  700.0000m    2.1410n 
 -287.87475m  700.0000m    2.1503n 
 -287.77475m  700.0000m    2.1596n 
 -287.67475m  700.0000m    2.1689n 
 -287.57475m  700.0000m    2.1783n 
 -287.47475m  700.0000m    2.1877n 
 -287.37475m  700.0000m    2.1971n 
 -287.27475m  700.0000m    2.2066n 
 -287.17475m  700.0000m    2.2161n 
 -287.07475m  700.0000m    2.2256n 
 -286.97475m  700.0000m    2.2352n 
 -286.87475m  700.0000m    2.2448n 
 -286.77475m  700.0000m    2.2544n 
 -286.67475m  700.0000m    2.2641n 
 -286.57475m  700.0000m    2.2738n 
 -286.47475m  700.0000m    2.2836n 
 -286.37475m  700.0000m    2.2934n 
 -286.27475m  700.0000m    2.3032n 
 -286.17475m  700.0000m    2.3130n 
 -286.07475m  700.0000m    2.3229n 
 -285.97475m  700.0000m    2.3328n 
 -285.87475m  700.0000m    2.3428n 
 -285.77475m  700.0000m    2.3528n 
 -285.67475m  700.0000m    2.3628n 
 -285.57475m  700.0000m    2.3729n 
 -285.47475m  700.0000m    2.3830n 
 -285.37475m  700.0000m    2.3932n 
 -285.27475m  700.0000m    2.4033n 
 -285.17475m  700.0000m    2.4136n 
 -285.07475m  700.0000m    2.4238n 
 -284.97475m  700.0000m    2.4341n 
 -284.87475m  700.0000m    2.4444n 
 -284.77475m  700.0000m    2.4548n 
 -284.67475m  700.0000m    2.4652n 
 -284.57475m  700.0000m    2.4756n 
 -284.47475m  700.0000m    2.4861n 
 -284.37475m  700.0000m    2.4966n 
 -284.27475m  700.0000m    2.5072n 
 -284.17475m  700.0000m    2.5178n 
 -284.07475m  700.0000m    2.5284n 
 -283.97475m  700.0000m    2.5391n 
 -283.87475m  700.0000m    2.5498n 
 -283.77475m  700.0000m    2.5605n 
 -283.67475m  700.0000m    2.5713n 
 -283.57475m  700.0000m    2.5821n 
 -283.47475m  700.0000m    2.5929n 
 -283.37475m  700.0000m    2.6038n 
 -283.27475m  700.0000m    2.6148n 
 -283.17475m  700.0000m    2.6257n 
 -283.07475m  700.0000m    2.6367n 
 -282.97475m  700.0000m    2.6478n 
 -282.87475m  700.0000m    2.6589n 
 -282.77475m  700.0000m    2.6700n 
 -282.67475m  700.0000m    2.6811n 
 -282.57475m  700.0000m    2.6923n 
 -282.47475m  700.0000m    2.7036n 
 -282.37475m  700.0000m    2.7148n 
 -282.27475m  700.0000m    2.7262n 
 -282.17475m  700.0000m    2.7375n 
 -282.07475m  700.0000m    2.7489n 
 -281.97475m  700.0000m    2.7603n 
 -281.87475m  700.0000m    2.7718n 
 -281.77475m  700.0000m    2.7833n 
 -281.67475m  700.0000m    2.7949n 
 -281.57475m  700.0000m    2.8065n 
 -281.47475m  700.0000m    2.8181n 
 -281.37475m  700.0000m    2.8298n 
 -281.27475m  700.0000m    2.8415n 
 -281.17475m  700.0000m    2.8533n 
 -281.07475m  700.0000m    2.8650n 
 -280.97475m  700.0000m    2.8769n 
 -280.87475m  700.0000m    2.8888n 
 -280.77475m  700.0000m    2.9007n 
 -280.67475m  700.0000m    2.9126n 
 -280.57475m  700.0000m    2.9246n 
 -280.47475m  700.0000m    2.9367n 
 -280.37475m  700.0000m    2.9487n 
 -280.27475m  700.0000m    2.9608n 
 -280.17475m  700.0000m    2.9730n 
 -280.07475m  700.0000m    2.9852n 
 -279.97475m  700.0000m    2.9975n 
 -279.87475m  700.0000m    3.0097n 
 -279.77475m  700.0000m    3.0221n 
 -279.67475m  700.0000m    3.0344n 
 -279.57475m  700.0000m    3.0468n 
 -279.47475m  700.0000m    3.0593n 
 -279.37475m  700.0000m    3.0718n 
 -279.27475m  700.0000m    3.0843n 
 -279.17475m  700.0000m    3.0969n 
 -279.07475m  700.0000m    3.1095n 
 -278.97475m  700.0000m    3.1222n 
 -278.87475m  700.0000m    3.1349n 
 -278.77475m  700.0000m    3.1476n 
 -278.67475m  700.0000m    3.1604n 
 -278.57475m  700.0000m    3.1732n 
 -278.47475m  700.0000m    3.1861n 
 -278.37475m  700.0000m    3.1990n 
 -278.27475m  700.0000m    3.2119n 
 -278.17475m  700.0000m    3.2249n 
 -278.07475m  700.0000m    3.2380n 
 -277.97475m  700.0000m    3.2511n 
 -277.87475m  700.0000m    3.2642n 
 -277.77475m  700.0000m    3.2774n 
 -277.67475m  700.0000m    3.2906n 
 -277.57475m  700.0000m    3.3038n 
 -277.47475m  700.0000m    3.3171n 
 -277.37475m  700.0000m    3.3305n 
 -277.27475m  700.0000m    3.3439n 
 -277.17475m  700.0000m    3.3573n 
 -277.07475m  700.0000m    3.3708n 
 -276.97475m  700.0000m    3.3843n 
 -276.87475m  700.0000m    3.3979n 
 -276.77475m  700.0000m    3.4115n 
 -276.67475m  700.0000m    3.4251n 
[...]
  453.22525m  699.9994m  538.5964n 
  453.32525m  699.9994m  538.6088n 
  453.42525m  699.9994m  538.6213n 
  453.52525m  699.9994m  538.6337n 
  453.62525m  699.9994m  538.6461n 
  453.72525m  699.9994m  538.6585n 
  453.82525m  699.9994m  538.6709n 
  453.92525m  699.9994m  538.6833n 
  454.02525m  699.9994m  538.6957n 
  454.12525m  699.9994m  538.7081n 
  454.22525m  699.9994m  538.7205n 
  454.32525m  699.9994m  538.7328n 
  454.42525m  699.9994m  538.7452n 
  454.52525m  699.9994m  538.7575n 
  454.62525m  699.9994m  538.7699n 
  454.72525m  699.9994m  538.7822n 
  454.82525m  699.9994m  538.7946n 
  454.92525m  699.9994m  538.8069n 
  455.02525m  699.9994m  538.8192n 
  455.12525m  699.9994m  538.8315n 
  455.22525m  699.9994m  538.8438n 
  455.32525m  699.9994m  538.8561n 
  455.42525m  699.9994m  538.8684n 
  455.52525m  699.9994m  538.8806n 
  455.62525m  699.9994m  538.8929n 
  455.72525m  699.9994m  538.9052n 
  455.82525m  699.9994m  538.9174n 
  455.92525m  699.9994m  538.9297n 
  456.02525m  699.9994m  538.9419n 
  456.12525m  699.9994m  538.9541n 
  456.22525m  699.9994m  538.9664n 
  456.32525m  699.9994m  538.9786n 
  456.42525m  699.9994m  538.9908n 
  456.52525m  699.9994m  539.0030n 
  456.62525m  699.9994m  539.0152n 
  456.72525m  699.9994m  539.0274n 
  456.82525m  699.9994m  539.0395n 
  456.92525m  699.9994m  539.0517n 
  457.02525m  699.9994m  539.0639n 
  457.12525m  699.9994m  539.0760n 
  457.22525m  699.9994m  539.0882n 
  457.32525m  699.9994m  539.1003n 
  457.42525m  699.9994m  539.1125n 
  457.52525m  699.9994m  539.1246n 
  457.62525m  699.9994m  539.1367n 
  457.72525m  699.9994m  539.1488n 
  457.82525m  699.9994m  539.1609n 
  457.92525m  699.9994m  539.1730n 
  458.02525m  699.9994m  539.1851n 
  458.12525m  699.9994m  539.1972n 
  458.22525m  699.9994m  539.2093n 
  458.32525m  699.9994m  539.2213n 
  458.42525m  699.9994m  539.2334n 
  458.52525m  699.9994m  539.2454n 
  458.62525m  699.9994m  539.2575n 
  458.72525m  699.9994m  539.2695n 
  458.82525m  699.9994m  539.2816n 
  458.92525m  699.9994m  539.2936n 
  459.02525m  699.9994m  539.3056n 
  459.12525m  699.9994m  539.3176n 
  459.22525m  699.9994m  539.3296n 
  459.32525m  699.9994m  539.3416n 
  459.42525m  699.9994m  539.3536n 
  459.52525m  699.9994m  539.3656n 
  459.62525m  699.9994m  539.3775n 
  459.72525m  699.9994m  539.3895n 
  459.82525m  699.9994m  539.4014n 
  459.92525m  699.9994m  539.4134n 
  460.02525m  699.9994m  539.4253n 
  460.12525m  699.9994m  539.4373n 
  460.22525m  699.9994m  539.4492n 
  460.32525m  699.9994m  539.4611n 
  460.42525m  699.9994m  539.4730n 
  460.52525m  699.9994m  539.4849n 
  460.62525m  699.9994m  539.4968n 
  460.72525m  699.9994m  539.5087n 
  460.82525m  699.9994m  539.5206n 
  460.92525m  699.9994m  539.5325n 
  461.02525m  699.9994m  539.5443n 
  461.12525m  699.9994m  539.5562n 
  461.22525m  699.9994m  539.5681n 
  461.32525m  699.9994m  539.5799n 
  461.42525m  699.9994m  539.5917n 
  461.52525m  699.9994m  539.6036n 
  461.62525m  699.9994m  539.6154n 
  461.72525m  699.9994m  539.6272n 
  461.82525m  699.9994m  539.6390n 
  461.92525m  699.9994m  539.6508n 
  462.02525m  699.9994m  539.6626n 
  462.12525m  699.9994m  539.6744n 
  462.22525m  699.9994m  539.6862n 
  462.32525m  699.9994m  539.6980n 
  462.42525m  699.9994m  539.7097n 
  462.52525m  699.9994m  539.7215n 
  462.62525m  699.9994m  539.7333n 
  462.72525m  699.9994m  539.7450n 
  462.82525m  699.9994m  539.7567n 
  462.92525m  699.9994m  539.7685n 
  463.02525m  699.9994m  539.7802n 
  463.12525m  699.9994m  539.7919n 
  463.22525m  699.9994m  539.8036n 
  463.32525m  699.9994m  539.8153n 
  463.42525m  699.9994m  539.8270n 
  463.52525m  699.9994m  539.8387n 
  463.62525m  699.9994m  539.8504n 
  463.72525m  699.9994m  539.8621n 
  463.82525m  699.9994m  539.8737n 
  463.92525m  699.9994m  539.8854n 
  464.02525m  699.9994m  539.8970n 
  464.12525m  699.9994m  539.9087n 
  464.22525m  699.9994m  539.9203n 
  464.32525m  699.9994m  539.9320n 
  464.42525m  699.9994m  539.9436n 
  464.52525m  699.9994m  539.9552n 
  464.62525m  699.9994m  539.9668n 
  464.72525m  699.9994m  539.9784n 
  464.82525m  699.9994m  539.9900n 
  464.92525m  699.9994m  540.0016n 
  465.02525m  699.9994m  540.0132n 
  465.12525m  699.9994m  540.0248n 
  465.22525m  699.9994m  540.0363n 
  465.32525m  699.9994m  540.0479n 
  465.42525m  699.9994m  540.0594n 
  465.52525m  699.9994m  540.0710n 
  465.62525m  699.9994m  540.0825n 
  465.72525m  699.9994m  540.0940n 
  465.82525m  699.9994m  540.1056n 
  465.92525m  699.9994m  540.1171n 
  466.02525m  699.9994m  540.1286n 
  466.12525m  699.9994m  540.1401n 
  466.22525m  699.9994m  540.1516n 
  466.32525m  699.9994m  540.1631n 
  466.42525m  699.9994m  540.1746n 
  466.52525m  699.9994m  540.1861n 
  466.62525m  699.9994m  540.1975n 
  466.72525m  699.9994m  540.2090n 
  466.82525m  699.9994m  540.2204n 
  466.92525m  699.9994m  540.2319n 
  467.02525m  699.9994m  540.2433n 
  467.12525m  699.9994m  540.2548n 
  467.22525m  699.9994m  540.2662n 
  467.32525m  699.9994m  540.2776n 
  467.42525m  699.9994m  540.2890n 
  467.52525m  699.9994m  540.3004n 
  467.62525m  699.9994m  540.3118n 
  467.72525m  699.9994m  540.3232n 
  467.82525m  699.9994m  540.3346n 
  467.92525m  699.9994m  540.3460n 
  468.02525m  699.9994m  540.3574n 
  468.12525m  699.9994m  540.3687n 
  468.22525m  699.9994m  540.3801n 
  468.32525m  699.9994m  540.3914n 
  468.42525m  699.9994m  540.4028n 
  468.52525m  699.9994m  540.4141n 
  468.62525m  699.9994m  540.4254n 
  468.72525m  699.9994m  540.4368n 
  468.82525m  699.9994m  540.4481n 
  468.92525m  699.9994m  540.4594n 
  469.02525m  699.9994m  540.4707n 
  469.12525m  699.9994m  540.4820n 
  469.22525m  699.9994m  540.4933n 
  469.32525m  699.9994m  540.5046n 
  469.42525m  699.9994m  540.5158n 
  469.52525m  699.9994m  540.5271n 
  469.62525m  699.9994m  540.5384n 
  469.72525m  699.9994m  540.5496n 
  469.82525m  699.9994m  540.5609n 
  469.92525m  699.9994m  540.5721n 
  470.02525m  699.9994m  540.5833n 
  470.12525m  699.9994m  540.5946n 
  470.22525m  699.9994m  540.6058n 
  470.32525m  699.9994m  540.6170n 
  470.42525m  699.9994m  540.6282n 
  470.52525m  699.9994m  540.6394n 
  470.62525m  699.9994m  540.6506n 
  470.72525m  699.9994m  540.6618n 
  470.82525m  699.9994m  540.6730n 
  470.92525m  699.9994m  540.6841n 
  471.02525m  699.9994m  540.6953n 
  471.12525m  699.9994m  540.7065n 
  471.22525m  699.9994m  540.7176n 
  471.32525m  699.9994m  540.7288n 
  471.42525m  699.9994m  540.7399n 
  471.52525m  699.9994m  540.7510n 
  471.62525m  699.9994m  540.7621n 
  471.72525m  699.9994m  540.7733n 
  471.82525m  699.9994m  540.7844n 
  471.92525m  699.9994m  540.7955n 
  472.02525m  699.9994m  540.8066n 
  472.12525m  699.9994m  540.8177n 
  472.22525m  699.9994m  540.8288n 
  472.32525m  699.9994m  540.8398n 
  472.42525m  699.9994m  540.8509n 
  472.52525m  699.9994m  540.8620n 
  472.62525m  699.9994m  540.8730n 
  472.72525m  699.9994m  540.8841n 
  472.82525m  699.9994m  540.8951n 
  472.92525m  699.9994m  540.9062n 
  473.02525m  699.9994m  540.9172n 
  473.12525m  699.9994m  540.9282n 
  473.22525m  699.9994m  540.9392n 
  473.32525m  699.9994m  540.9502n 
  473.42525m  699.9994m  540.9612n 
  473.52525m  699.9994m  540.9722n 
  473.62525m  699.9994m  540.9832n 
  473.72525m  699.9994m  540.9942n 
  473.82525m  699.9994m  541.0052n 
  473.92525m  699.9994m  541.0162n 
  474.02525m  699.9994m  541.0271n 
  474.12525m  699.9994m  541.0381n 
  474.22525m  699.9994m  541.0490n 
  474.32525m  699.9994m  541.0600n 
  474.42525m  699.9994m  541.0709n 
  474.52525m  699.9994m  541.0818n 
  474.62525m  699.9994m  541.0928n 
  474.72525m  699.9994m  541.1037n 
  474.82525m  699.9994m  541.1146n 
  474.92525m  699.9994m  541.1255n 
  475.02525m  699.9994m  541.1364n 
  475.12525m  699.9994m  541.1473n 
  475.22525m  699.9994m  541.1582n 
  475.32525m  699.9994m  541.1690n 
  475.42525m  699.9994m  541.1799n 
  475.52525m  699.9994m  541.1908n 
  475.62525m  699.9994m  541.2016n 
  475.72525m  699.9994m  541.2125n 
  475.82525m  699.9994m  541.2233n 
  475.92525m  699.9994m  541.2342n 
  476.02525m  699.9994m  541.2450n 
  476.12525m  699.9994m  541.2558n 
  476.22525m  699.9994m  541.2667n 
  476.32525m  699.9994m  541.2775n 
  476.42525m  699.9994m  541.2883n 
  476.52525m  699.9994m  541.2991n 
  476.62525m  699.9994m  541.3099n 
  476.72525m  699.9994m  541.3206n 
  476.82525m  699.9994m  541.3314n 
  476.92525m  699.9994m  541.3422n 
  477.02525m  699.9994m  541.3530n 
  477.12525m  699.9994m  541.3637n 
  477.22525m  699.9994m  541.3745n 
  477.32525m  699.9994m  541.3852n 
  477.42525m  699.9994m  541.3960n 
  477.52525m  699.9994m  541.4067n 
  477.62525m  699.9994m  541.4174n 
  477.72525m  699.9994m  541.4281n 
  477.82525m  699.9994m  541.4389n 
  477.92525m  699.9994m  541.4496n 
  478.02525m  699.9994m  541.4603n 
  478.12525m  699.9994m  541.4710n 
  478.22525m  699.9994m  541.4817n 
  478.32525m  699.9994m  541.4923n 
  478.42525m  699.9994m  541.5030n 
  478.52525m  699.9994m  541.5137n 
  478.62525m  699.9994m  541.5243n 
  478.72525m  699.9994m  541.5350n 
  478.82525m  699.9994m  541.5456n 
  478.92525m  699.9994m  541.5563n 
  479.02525m  699.9994m  541.5669n 
  479.12525m  699.9994m  541.5776n 
  479.22525m  699.9994m  541.5882n 
  479.32525m  699.9994m  541.5988n 
  479.42525m  699.9994m  541.6094n 
  479.52525m  699.9994m  541.6200n 
  479.62525m  699.9994m  541.6306n 
  479.72525m  699.9994m  541.6412n 
  479.82525m  699.9994m  541.6518n 
  479.92525m  699.9994m  541.6624n 
  480.02525m  699.9994m  541.6729n 
  480.12525m  699.9994m  541.6835n 
  480.22525m  699.9994m  541.6941n 
  480.32525m  699.9994m  541.7046n 
  480.42525m  699.9994m  541.7152n 
  480.52525m  699.9994m  541.7257n 
  480.62525m  699.9994m  541.7362n 
  480.72525m  699.9994m  541.7468n 
  480.82525m  699.9994m  541.7573n 
  480.92525m  699.9994m  541.7678n 
  481.02525m  699.9994m  541.7783n 
  481.12525m  699.9994m  541.7888n 
  481.22525m  699.9994m  541.7993n 
  481.32525m  699.9994m  541.8098n 
  481.42525m  699.9994m  541.8203n 
  481.52525m  699.9994m  541.8308n 
  481.62525m  699.9994m  541.8412n 
  481.72525m  699.9994m  541.8517n 
  481.82525m  699.9994m  541.8622n 
  481.92525m  699.9994m  541.8726n 
  482.02525m  699.9994m  541.8831n 
  482.12525m  699.9994m  541.8935n 
  482.22525m  699.9994m  541.9039n 
  482.32525m  699.9994m  541.9144n 
  482.42525m  699.9994m  541.9248n 
  482.52525m  699.9994m  541.9352n 
  482.62525m  699.9994m  541.9456n 
  482.72525m  699.9994m  541.9560n 
  482.82525m  699.9994m  541.9664n 
  482.92525m  699.9994m  541.9768n 
  483.02525m  699.9994m  541.9872n 
  483.12525m  699.9994m  541.9976n 
  483.22525m  699.9994m  542.0079n 
  483.32525m  699.9994m  542.0183n 
  483.42525m  699.9994m  542.0286n 
  483.52525m  699.9994m  542.0390n 
  483.62525m  699.9994m  542.0493n 
  483.72525m  699.9994m  542.0597n 
  483.82525m  699.9994m  542.0700n 
  483.92525m  699.9994m  542.0803n 
  484.02525m  699.9994m  542.0907n 
  484.12525m  699.9994m  542.1010n 
  484.22525m  699.9994m  542.1113n 
  484.32525m  699.9994m  542.1216n 
  484.42525m  699.9994m  542.1319n 
  484.52525m  699.9994m  542.1422n 
  484.62525m  699.9994m  542.1525n 
  484.72525m  699.9994m  542.1627n 
  484.82525m  699.9994m  542.1730n 
  484.92525m  699.9994m  542.1833n 
  485.02525m  699.9994m  542.1935n 
  485.12525m  699.9994m  542.2038n 
  485.22525m  699.9994m  542.2140n 
  485.32525m  699.9994m  542.2243n 
  485.42525m  699.9994m  542.2345n 
  485.52525m  699.9994m  542.2447n 
  485.62525m  699.9994m  542.2550n 
  485.72525m  699.9994m  542.2652n 
  485.82525m  699.9994m  542.2754n 
  485.92525m  699.9994m  542.2856n 
  486.02525m  699.9994m  542.2958n 
  486.12525m  699.9994m  542.3060n 
  486.22525m  699.9994m  542.3162n 
  486.32525m  699.9994m  542.3263n 
  486.42525m  699.9994m  542.3365n 
  486.52525m  699.9994m  542.3467n 
  486.62525m  699.9994m  542.3568n 
  486.72525m  699.9994m  542.3670n 
  486.82525m  699.9994m  542.3771n 
  486.92525m  699.9994m  542.3873n 
  487.02525m  699.9994m  542.3974n 
  487.12525m  699.9994m  542.4075n 
  487.22525m  699.9994m  542.4177n 
  487.32525m  699.9994m  542.4278n 
  487.42525m  699.9994m  542.4379n 
  487.52525m  699.9994m  542.4480n 
  487.62525m  699.9994m  542.4581n 
  487.72525m  699.9994m  542.4682n 
  487.82525m  699.9994m  542.4783n 
  487.92525m  699.9994m  542.4884n 
  488.02525m  699.9994m  542.4984n 
  488.12525m  699.9994m  542.5085n 
  488.22525m  699.9994m  542.5186n 
  488.32525m  699.9994m  542.5286n 
  488.42525m  699.9994m  542.5387n 
  488.52525m  699.9994m  542.5487n 
  488.62525m  699.9994m  542.5588n 
  488.72525m  699.9994m  542.5688n 
  488.82525m  699.9994m  542.5788n 
  488.92525m  699.9994m  542.5888n 
  489.02525m  699.9994m  542.5989n 
  489.12525m  699.9994m  542.6089n 
  489.22525m  699.9994m  542.6189n 
  489.32525m  699.9994m  542.6289n 
  489.42525m  699.9994m  542.6389n 
  489.52525m  699.9994m  542.6489n 
  489.62525m  699.9994m  542.6588n 
  489.72525m  699.9994m  542.6688n 
  489.82525m  699.9994m  542.6788n 
  489.92525m  699.9994m  542.6887n 
  490.02525m  699.9994m  542.6987n 
  490.12525m  699.9994m  542.7086n 
  490.22525m  699.9994m  542.7186n 
  490.32525m  699.9994m  542.7285n 
  490.42525m  699.9994m  542.7385n 
  490.52525m  699.9994m  542.7484n 
  490.62525m  699.9994m  542.7583n 
  490.72525m  699.9994m  542.7682n 
  490.82525m  699.9994m  542.7781n 
  490.92525m  699.9994m  542.7880n 
  491.02525m  699.9994m  542.7979n 
  491.12525m  699.9994m  542.8078n 
  491.22525m  699.9994m  542.8177n 
  491.32525m  699.9994m  542.8276n 
  491.42525m  699.9994m  542.8374n 
  491.52525m  699.9994m  542.8473n 
  491.62525m  699.9994m  542.8572n 
  491.72525m  699.9994m  542.8670n 
  491.82525m  699.9994m  542.8769n 
  491.92525m  699.9994m  542.8867n 
  492.02525m  699.9994m  542.8966n 
  492.12525m  699.9994m  542.9064n 
  492.22525m  699.9994m  542.9162n 
  492.32525m  699.9994m  542.9260n 
  492.42525m  699.9994m  542.9358n 
  492.52525m  699.9994m  542.9456n 
  492.62525m  699.9994m  542.9554n 
  492.72525m  699.9994m  542.9652n 
  492.82525m  699.9994m  542.9750n 
  492.92525m  699.9994m  542.9848n 
  493.02525m  699.9994m  542.9946n 
  493.12525m  699.9994m  543.0044n 
  493.22525m  699.9994m  543.0141n 
  493.32525m  699.9994m  543.0239n 
  493.42525m  699.9994m  543.0337n 
  493.52525m  699.9994m  543.0434n 
  493.62525m  699.9994m  543.0531n 
  493.72525m  699.9994m  543.0629n 
  493.82525m  699.9994m  543.0726n 
  493.92525m  699.9994m  543.0823n 
  494.02525m  699.9994m  543.0921n 
  494.12525m  699.9994m  543.1018n 
  494.22525m  699.9994m  543.1115n 
  494.32525m  699.9994m  543.1212n 
  494.42525m  699.9994m  543.1309n 
  494.52525m  699.9994m  543.1406n 
  494.62525m  699.9994m  543.1503n 
  494.72525m  699.9994m  543.1599n 
  494.82525m  699.9994m  543.1696n 
  494.92525m  699.9994m  543.1793n 
y
1****** HSPICE -- Q-2020.03-SP2-2 linux64 (Nov  1 2020) ******                  
 ******  
 .title ex1_1

 ****** operating point information tnom=  25.000 temp=  25.000 ******
 ****** operating point status is all       simulation time is     0.     
    node    =voltage      node    =voltage      node    =voltage

 +0:bl      = 700.0000m 0:blb     = 700.0000m 0:gl      = 262.6952n
 +0:gr      = 699.9997m 0:q       = 699.9997m 0:qb      = 262.6952n
 +0:u       =   0.      0:v1      = 989.9491m 0:v2      = 371.5072n
 +0:vdd     = 700.0000m 0:wl      =   0.     


 **** voltage sources

 subckt                                   
 element  0:vu       0:vvdd     0:vwl     
  volts      0.       700.0000m    0.     
  current    0.       -26.2695u  376.8398f
  power      0.        18.3887u    0.     

     total voltage source power dissipation=   18.3887u       watts



 **** voltage-controlled voltage sources


 subckt                                              
 element  0:eli      0:eri      0:ev1      0:ev2     
  volts    699.9997m  262.6952n  989.9491m  371.5072n
  current -254.4471f  212.2198f    0.         0.     





 **** mosfets


 subckt                                                                    
 element  0:mp_pu1   0:mp_pu2   0:mn_pd1   0:mn_pd2   0:mn_ax1   0:mn_ax2  
 model    0:pmos_sra 0:pmos_sra 0:nmos_sra 0:nmos_sra 0:nmos_sra 0:nmos_sra
 region   Subth      Saturation Saturation Cutoff     Cutoff     Cutoff    
  id       -23.3344a  -26.2695u   28.1555u    3.9267a  1.082e-20  678.4824f
  ibs        0.         0.         0.         0.         0.         0.     
  ibd        0.         0.         0.         0.         0.         0.     
  vgs     -281.5554n -699.9997m  699.9997m  262.6952n -699.9997m -262.6952n
  vds     -281.5554n -699.9997m  699.9997m  262.6952n  281.5554n  699.9997m
  vbs        0.         0.         0.         0.      -699.9997m -262.6952n
  vth     -339.1310m -328.3087m  406.6380m  410.1164m  410.1164m  406.6380m
  vdsat    -72.7964m -374.5752m  283.4962m   70.6690m   70.6690m   70.6690m
  vod      339.1307m -371.6910m  293.3617m -410.1161m   -1.1101  -406.6383m
  beta       1.6413m    1.6413m    2.1736m    2.1736m    2.1736m    2.1736m
  gam eff    0.         0.         0.         0.         0.         0.     
  gm       903.5418a   94.1569u  107.9606u  150.0045a  1.226e-26   25.5578p
  gds       82.8766p    9.4596u    4.5229u   14.9555p   32.4344f  516.9655f
  gmb      2.696e-22   73.5674p   94.2620p  4.473e-23  8.731e-26    7.3861a
  cdtot     10.2226a   10.2694a   10.5415a   10.2225a   10.2225a   10.2225a
  cgtot     20.4452a   54.7498a   52.3853a   20.4450a   20.4450a   20.4450a
  cstot     10.2226a   30.0435a   28.9434a   10.2225a   10.2225a   10.2225a
  cbtot      0.         0.         0.         0.         0.         0.     
  cgs       10.2226a   44.7570a   41.7726a   10.2225a   10.2225a   10.2225a
  cgd       10.2226a    9.9928a   10.6128a   10.2225a   10.2225a   10.2225a




          ***** job concluded
 ******  
 .title ex1_1

 ****** job statistics summary tnom=  25.000 temp=  25.000 ******
  
 ******  Machine Information  ******
 CPU:
 model name	: AMD EPYC 7713 64-Core Processor
 cpu MHz	: 2000.000
  
 OS:
 Linux version 3.10.0-1160.88.1.el7.x86_64 (mockbuild@kbuilder.bsys.centos.org) (gcc version 4.8.5 20150623 (Red Hat 4.8.5-44) (GCC) ) #1 SMP Tue Mar 7 15:41:52 UTC 2023


  ******  HSPICE Threads Information  ******

  Command Line Threads Count :     1
  Available CPU Count        :   256
  Actual Threads Count       :     1


  ******  Circuit Statistics  ******
  # nodes       =      12 # elements   =      15
  # resistors   =       0 # capacitors =       2 # inductors   =       0
  # mutual_inds =       0 # vccs       =       0 # vcvs        =       4
  # cccs        =       0 # ccvs       =       0 # volt_srcs   =       3
  # curr_srcs   =       0 # diodes     =       0 # bjts        =       0
  # jfets       =       0 # mosfets    =       6 # U elements  =       0
  # T elements  =       0 # W elements =       0 # B elements  =       0
  # S elements  =       0 # P elements =       0 # va device   =       0
  # vector_srcs =       0 # N elements =       0


  ******  Runtime Statistics (seconds)  ******

  analysis           time    # points   tot. iter  conv.iter
  op point           0.01           1           4
  dc sweep           0.72        9900       29700
  readin             0.01
  errchk             0.00
  setup              0.00
  output             0.00


           peak memory used        400.88 megabytes
           total cpu time            0.79 seconds
           total elapsed time        0.96 seconds
           job started at     14:24:27 03/19/2025
           job ended   at     14:24:28 03/19/2025
           job total runtime         0.96 seconds


 lic: Release hspice token(s) 
 lic: total license checkout elapse time:        0.17(s)
