 ****** HSPICE -- Q-2020.03-SP2-2 linux64 (Nov  1 2020) ******                  
  Copyright (c) 1986 - 2025 by Synopsys, Inc. All Rights Reserved.              
  This software and the associated documentation are proprietary
  to Synopsys, Inc. This software may only be used in accordance
  with the terms and conditions of a written license agreement with
  Synopsys, Inc. All other use, reproduction, or distribution of
  this software is strictly prohibited.
  Input File: ex1_1.sp                                                          
  Command line options: /RAID2/cad/synopsys/hspice/2020.03-sp2-2/hspice/linux64/hspice -i ex1_1.sp -o ex1_1.lis
  Start time: Tue Mar 18 23:42:16 2025
 lic:  
 lic: FLEXlm: SDK_12.6 
 lic: USER:   es25MCS042           HOSTNAME: ee28 
 lic: HOSTID: "d85ed3efc19a"       PID:      80795 
 lic: Using FLEXlm license file: 
 lic: 26585@lshc 
 lic: Checkout 1 hspice 
 lic: License/Maintenance for hspice will expire on 14-may-2025/2024.09 
 lic: 164(in_use)/1100(total) FLOATING license(s) on SERVER 26585@lshc 
 lic:   
  
      
 *****************************************************************
 ******  option summary
 ******
 runlvl  = 3         bypass  = 2.0000    
 ******
 .title ex1_1

 ****** dc transfer curves tnom=  25.000 temp=  25.000 ******
x

 volt         voltage    voltage   
             q          qb         
 -494.97475m  699.9997m  544.2508n 
 -494.87475m  699.9997m  544.1176n 
 -494.77475m  699.9997m  543.9844n 
 -494.67475m  699.9997m  543.8512n 
 -494.57475m  699.9997m  543.7180n 
 -494.47475m  699.9997m  543.5848n 
 -494.37475m  699.9997m  543.4515n 
 -494.27475m  699.9997m  543.3182n 
 -494.17475m  699.9997m  543.1849n 
 -494.07475m  699.9997m  543.0516n 
 -493.97475m  699.9997m  542.9183n 
 -493.87475m  699.9997m  542.7850n 
 -493.77475m  699.9997m  542.6516n 
 -493.67475m  699.9997m  542.5182n 
 -493.57475m  699.9997m  542.3848n 
 -493.47475m  699.9997m  542.2514n 
 -493.37475m  699.9997m  542.1180n 
 -493.27475m  699.9997m  541.9845n 
 -493.17475m  699.9997m  541.8510n 
 -493.07475m  699.9997m  541.7176n 
 -492.97475m  699.9997m  541.5841n 
 -492.87475m  699.9997m  541.4505n 
 -492.77475m  699.9997m  541.3170n 
 -492.67475m  699.9997m  541.1834n 
 -492.57475m  699.9997m  541.0499n 
 -492.47475m  699.9997m  540.9163n 
 -492.37475m  699.9997m  540.7827n 
 -492.27475m  699.9997m  540.6491n 
 -492.17475m  699.9997m  540.5154n 
 -492.07475m  699.9997m  540.3818n 
 -491.97475m  699.9997m  540.2481n 
 -491.87475m  699.9997m  540.1144n 
 -491.77475m  699.9997m  539.9807n 
 -491.67475m  699.9997m  539.8470n 
 -491.57475m  699.9997m  539.7132n 
 -491.47475m  699.9997m  539.5795n 
 -491.37475m  699.9997m  539.4457n 
 -491.27475m  699.9997m  539.3119n 
 -491.17475m  699.9997m  539.1781n 
 -491.07475m  699.9997m  539.0443n 
 -490.97475m  699.9997m  538.9104n 
 -490.87475m  699.9997m  538.7766n 
 -490.77475m  699.9997m  538.6427n 
 -490.67475m  699.9997m  538.5088n 
 -490.57475m  699.9997m  538.3749n 
 -490.47475m  699.9997m  538.2410n 
 -490.37475m  699.9997m  538.1071n 
 -490.27475m  699.9997m  537.9731n 
 -490.17475m  699.9997m  537.8391n 
 -490.07475m  699.9997m  537.7052n 
 -489.97475m  699.9997m  537.5712n 
 -489.87475m  699.9997m  537.4371n 
 -489.77475m  699.9997m  537.3031n 
 -489.67475m  699.9997m  537.1691n 
 -489.57475m  699.9997m  537.0350n 
 -489.47475m  699.9997m  536.9009n 
 -489.37475m  699.9997m  536.7668n 
 -489.27475m  699.9997m  536.6327n 
 -489.17475m  699.9997m  536.4986n 
 -489.07475m  699.9997m  536.3644n 
 -488.97475m  699.9997m  536.2303n 
 -488.87475m  699.9997m  536.0961n 
 -488.77475m  699.9997m  535.9619n 
 -488.67475m  699.9997m  535.8277n 
 -488.57475m  699.9997m  535.6935n 
 -488.47475m  699.9997m  535.5593n 
 -488.37475m  699.9997m  535.4250n 
 -488.27475m  699.9997m  535.2908n 
 -488.17475m  699.9997m  535.1565n 
 -488.07475m  699.9997m  535.0222n 
 -487.97475m  699.9997m  534.8879n 
 -487.87475m  699.9997m  534.7535n 
 -487.77475m  699.9997m  534.6192n 
 -487.67475m  699.9997m  534.4849n 
 -487.57475m  699.9997m  534.3505n 
 -487.47475m  699.9997m  534.2161n 
 -487.37475m  699.9997m  534.0817n 
 -487.27475m  699.9997m  533.9473n 
 -487.17475m  699.9997m  533.8129n 
 -487.07475m  699.9997m  533.6784n 
 -486.97475m  699.9997m  533.5440n 
 -486.87475m  699.9997m  533.4095n 
 -486.77475m  699.9997m  533.2750n 
 -486.67475m  699.9997m  533.1405n 
 -486.57475m  699.9997m  533.0060n 
 -486.47475m  699.9997m  532.8715n 
 -486.37475m  699.9997m  532.7369n 
 -486.27475m  699.9997m  532.6024n 
 -486.17475m  699.9997m  532.4678n 
 -486.07475m  699.9997m  532.3332n 
 -485.97475m  699.9997m  532.1986n 
 -485.87475m  699.9997m  532.0640n 
 -485.77475m  699.9997m  531.9294n 
 -485.67475m  699.9997m  531.7947n 
 -485.57475m  699.9997m  531.6601n 
 -485.47475m  699.9997m  531.5254n 
 -485.37475m  699.9997m  531.3907n 
 -485.27475m  699.9997m  531.2560n 
 -485.17475m  699.9997m  531.1213n 
 -485.07475m  699.9997m  530.9866n 
 -484.97475m  699.9997m  530.8518n 
 -484.87475m  699.9997m  530.7171n 
 -484.77475m  699.9997m  530.5823n 
 -484.67475m  699.9997m  530.4475n 
 -484.57475m  699.9997m  530.3127n 
 -484.47475m  699.9997m  530.1779n 
 -484.37475m  699.9997m  530.0431n 
 -484.27475m  699.9997m  529.9083n 
 -484.17475m  699.9997m  529.7734n 
 -484.07475m  699.9997m  529.6386n 
 -483.97475m  699.9997m  529.5037n 
 -483.87475m  699.9997m  529.3688n 
 -483.77475m  699.9997m  529.2339n 
 -483.67475m  699.9997m  529.0990n 
 -483.57475m  699.9997m  528.9641n 
 -483.47475m  699.9997m  528.8292n 
 -483.37475m  699.9997m  528.6942n 
 -483.27475m  699.9997m  528.5593n 
 -483.17475m  699.9997m  528.4243n 
 -483.07475m  699.9997m  528.2893n 
 -482.97475m  699.9997m  528.1543n 
 -482.87475m  699.9997m  528.0193n 
 -482.77475m  699.9997m  527.8843n 
 -482.67475m  699.9997m  527.7492n 
 -482.57475m  699.9997m  527.6142n 
 -482.47475m  699.9997m  527.4791n 
 -482.37475m  699.9997m  527.3440n 
 -482.27475m  699.9997m  527.2089n 
 -482.17475m  699.9997m  527.0738n 
 -482.07475m  699.9997m  526.9387n 
 -481.97475m  699.9997m  526.8036n 
 -481.87475m  699.9997m  526.6685n 
 -481.77475m  699.9997m  526.5333n 
 -481.67475m  699.9997m  526.3982n 
 -481.57475m  699.9997m  526.2630n 
 -481.47475m  699.9997m  526.1278n 
 -481.37475m  699.9997m  525.9926n 
 -481.27475m  699.9997m  525.8574n 
 -481.17475m  699.9997m  525.7222n 
 -481.07475m  699.9997m  525.5870n 
 -480.97475m  699.9997m  525.4517n 
 -480.87475m  699.9997m  525.3165n 
 -480.77475m  699.9997m  525.1812n 
 -480.67475m  699.9997m  525.0459n 
 -480.57475m  699.9997m  524.9106n 
 -480.47475m  699.9997m  524.7753n 
 -480.37475m  699.9997m  524.6400n 
 -480.27475m  699.9997m  524.5047n 
 -480.17475m  699.9997m  524.3693n 
 -480.07475m  699.9997m  524.2340n 
 -479.97475m  699.9997m  524.0986n 
 -479.87475m  699.9997m  523.9633n 
 -479.77475m  699.9997m  523.8279n 
 -479.67475m  699.9997m  523.6925n 
 -479.57475m  699.9997m  523.5571n 
 -479.47475m  699.9997m  523.4217n 
 -479.37475m  699.9997m  523.2863n 
 -479.27475m  699.9997m  523.1508n 
 -479.17475m  699.9997m  523.0154n 
 -479.07475m  699.9997m  522.8799n 
 -478.97475m  699.9997m  522.7445n 
 -478.87475m  699.9997m  522.6090n 
 -478.77475m  699.9997m  522.4735n 
 -478.67475m  699.9997m  522.3380n 
 -478.57475m  699.9997m  522.2025n 
 -478.47475m  699.9997m  522.0670n 
 -478.37475m  699.9997m  521.9315n 
 -478.27475m  699.9997m  521.7959n 
 -478.17475m  699.9997m  521.6604n 
 -478.07475m  699.9997m  521.5248n 
 -477.97475m  699.9997m  521.3892n 
 -477.87475m  699.9997m  521.2536n 
 -477.77475m  699.9997m  521.1181n 
 -477.67475m  699.9997m  520.9825n 
 -477.57475m  699.9997m  520.8468n 
 -477.47475m  699.9997m  520.7112n 
 -477.37475m  699.9997m  520.5756n 
 -477.27475m  699.9997m  520.4400n 
 -477.17475m  699.9997m  520.3043n 
 -477.07475m  699.9997m  520.1686n 
 -476.97475m  699.9997m  520.0330n 
 -476.87475m  699.9997m  519.8973n 
 -476.77475m  699.9997m  519.7616n 
 -476.67475m  699.9997m  519.6259n 
 -476.57475m  699.9997m  519.4902n 
 -476.47475m  699.9997m  519.3545n 
 -476.37475m  699.9997m  519.2188n 
 -476.27475m  699.9997m  519.0830n 
 -476.17475m  699.9997m  518.9473n 
 -476.07475m  699.9997m  518.8115n 
 -475.97475m  699.9997m  518.6758n 
 -475.87475m  699.9997m  518.5400n 
 -475.77475m  699.9997m  518.4042n 
 -475.67475m  699.9997m  518.2684n 
 -475.57475m  699.9997m  518.1326n 
 -475.47475m  699.9997m  517.9968n 
 -475.37475m  699.9997m  517.8610n 
 -475.27475m  699.9997m  517.7252n 
 -475.17475m  699.9997m  517.5893n 
 -475.07475m  699.9997m  517.4535n 
 -474.97475m  699.9997m  517.3176n 
 -474.87475m  699.9997m  517.1818n 
 -474.77475m  699.9997m  517.0459n 
 -474.67475m  699.9997m  516.9100n 
 -474.57475m  699.9997m  516.7741n 
 -474.47475m  699.9997m  516.6382n 
 -474.37475m  699.9998m  516.5023n 
 -474.27475m  699.9998m  516.3664n 
 -474.17475m  699.9998m  516.2305n 
 -474.07475m  699.9998m  516.0946n 
 -473.97475m  699.9998m  515.9586n 
 -473.87475m  699.9998m  515.8227n 
 -473.77475m  699.9998m  515.6867n 
 -473.67475m  699.9998m  515.5508n 
 -473.57475m  699.9998m  515.4148n 
 -473.47475m  699.9998m  515.2788n 
 -473.37475m  699.9998m  515.1428n 
 -473.27475m  699.9998m  515.0068n 
 -473.17475m  699.9998m  514.8708n 
 -473.07475m  699.9998m  514.7348n 
 -472.97475m  699.9998m  514.5988n 
 -472.87475m  699.9998m  514.4628n 
 -472.77475m  699.9998m  514.3268n 
 -472.67475m  699.9998m  514.1907n 
 -472.57475m  699.9998m  514.0547n 
 -472.47475m  699.9998m  513.9186n 
 -472.37475m  699.9998m  513.7826n 
 -472.27475m  699.9998m  513.6465n 
 -472.17475m  699.9998m  513.5104n 
 -472.07475m  699.9998m  513.3743n 
 -471.97475m  699.9998m  513.2382n 
 -471.87475m  699.9998m  513.1021n 
 -471.77475m  699.9998m  512.9660n 
 -471.67475m  699.9998m  512.8299n 
 -471.57475m  699.9998m  512.6938n 
 -471.47475m  699.9998m  512.5577n 
 -471.37475m  699.9998m  512.4215n 
 -471.27475m  699.9998m  512.2854n 
 -471.17475m  699.9998m  512.1493n 
 -471.07475m  699.9998m  512.0131n 
 -470.97475m  699.9998m  511.8770n 
 -470.87475m  699.9998m  511.7408n 
 -470.77475m  699.9998m  511.6046n 
 -470.67475m  699.9998m  511.4684n 
 -470.57475m  699.9998m  511.3323n 
 -470.47475m  699.9998m  511.1961n 
 -470.37475m  699.9998m  511.0599n 
 -470.27475m  699.9998m  510.9237n 
 -470.17475m  699.9998m  510.7875n 
 -470.07475m  699.9998m  510.6512n 
 -469.97475m  699.9998m  510.5150n 
 -469.87475m  699.9998m  510.3788n 
 -469.77475m  699.9998m  510.2425n 
 -469.67475m  699.9998m  510.1063n 
 -469.57475m  699.9998m  509.9701n 
 -469.47475m  699.9998m  509.8338n 
 -469.37475m  699.9998m  509.6976n 
 -469.27475m  699.9998m  509.5613n 
 -469.17475m  699.9998m  509.4250n 
 -469.07475m  699.9998m  509.2887n 
 -468.97475m  699.9998m  509.1525n 
 -468.87475m  699.9998m  509.0162n 
 -468.77475m  699.9998m  508.8799n 
 -468.67475m  699.9998m  508.7436n 
 -468.57475m  699.9998m  508.6073n 
 -468.47475m  699.9998m  508.4710n 
 -468.37475m  699.9998m  508.3347n 
 -468.27475m  699.9998m  508.1984n 
 -468.17475m  699.9998m  508.0620n 
 -468.07475m  699.9998m  507.9257n 
 -467.97475m  699.9998m  507.7894n 
 -467.87475m  699.9998m  507.6530n 
 -467.77475m  699.9998m  507.5167n 
 -467.67475m  699.9998m  507.3803n 
 -467.57475m  699.9998m  507.2440n 
 -467.47475m  699.9998m  507.1076n 
 -467.37475m  699.9998m  506.9713n 
 -467.27475m  699.9998m  506.8349n 
 -467.17475m  699.9998m  506.6985n 
 -467.07475m  699.9998m  506.5621n 
 -466.97475m  699.9998m  506.4258n 
 -466.87475m  699.9998m  506.2894n 
 -466.77475m  699.9998m  506.1530n 
 -466.67475m  699.9998m  506.0166n 
 -466.57475m  699.9998m  505.8802n 
 -466.47475m  699.9998m  505.7438n 
 -466.37475m  699.9998m  505.6074n 
 -466.27475m  699.9998m  505.4710n 
 -466.17475m  699.9998m  505.3346n 
 -466.07475m  699.9998m  505.1981n 
 -465.97475m  699.9998m  505.0617n 
 -465.87475m  699.9998m  504.9253n 
 -465.77475m  699.9998m  504.7889n 
 -465.67475m  699.9998m  504.6524n 
 -465.57475m  699.9998m  504.5160n 
 -465.47475m  699.9998m  504.3795n 
 -465.37475m  699.9998m  504.2431n 
 -465.27475m  699.9998m  504.1066n 
 -465.17475m  699.9998m  503.9702n 
 -465.07475m  699.9998m  503.8337n 
 -464.97475m  699.9998m  503.6973n 
 -464.87475m  699.9998m  503.5608n 
 -464.77475m  699.9998m  503.4243n 
 -464.67475m  699.9998m  503.2879n 
 -464.57475m  699.9998m  503.1514n 
 -464.47475m  699.9998m  503.0149n 
 -464.37475m  699.9998m  502.8784n 
 -464.27475m  699.9998m  502.7420n 
 -464.17475m  699.9998m  502.6055n 
 -464.07475m  699.9998m  502.4690n 
 -463.97475m  699.9998m  502.3325n 
 -463.87475m  699.9998m  502.1960n 
 -463.77475m  699.9998m  502.0595n 
 -463.67475m  699.9998m  501.9230n 
 -463.57475m  699.9998m  501.7865n 
 -463.47475m  699.9998m  501.6500n 
 -463.37475m  699.9998m  501.5135n 
 -463.27475m  699.9998m  501.3770n 
 -463.17475m  699.9998m  501.2405n 
 -463.07475m  699.9998m  501.1039n 
 -462.97475m  699.9998m  500.9674n 
 -462.87475m  699.9998m  500.8309n 
 -462.77475m  699.9998m  500.6944n 
 -462.67475m  699.9998m  500.5579n 
 -462.57475m  699.9998m  500.4213n 
 -462.47475m  699.9998m  500.2848n 
 -462.37475m  699.9998m  500.1483n 
 -462.27475m  699.9998m  500.0117n 
 -462.17475m  699.9998m  499.8752n 
 -462.07475m  699.9998m  499.7387n 
 -461.97475m  699.9998m  499.6021n 
 -461.87475m  699.9998m  499.4656n 
 -461.77475m  699.9998m  499.3290n 
 -461.67475m  699.9998m  499.1925n 
 -461.57475m  699.9998m  499.0560n 
 -461.47475m  699.9998m  498.9194n 
 -461.37475m  699.9998m  498.7829n 
 -461.27475m  699.9998m  498.6463n 
 -461.17475m  699.9998m  498.5098n 
 -461.07475m  699.9998m  498.3732n 
 -460.97475m  699.9998m  498.2367n 
 -460.87475m  699.9998m  498.1001n 
 -460.77475m  699.9998m  497.9635n 
 -460.67475m  699.9998m  497.8270n 
 -460.57475m  699.9998m  497.6904n 
 -460.47475m  699.9998m  497.5539n 
 -460.37475m  699.9998m  497.4173n 
 -460.27475m  699.9998m  497.2807n 
 -460.17475m  699.9998m  497.1442n 
 -460.07475m  699.9998m  497.0076n 
 -459.97475m  699.9998m  496.8711n 
 -459.87475m  699.9998m  496.7345n 
 -459.77475m  699.9998m  496.5979n 
 -459.67475m  699.9998m  496.4614n 
 -459.57475m  699.9998m  496.3248n 
 -459.47475m  699.9998m  496.1882n 
 -459.37475m  699.9998m  496.0517n 
 -459.27475m  699.9998m  495.9151n 
 -459.17475m  699.9998m  495.7785n 
 -459.07475m  699.9998m  495.6420n 
 -458.97475m  699.9998m  495.5054n 
 -458.87475m  699.9998m  495.3688n 
 -458.77475m  699.9998m  495.2323n 
 -458.67475m  699.9998m  495.0957n 
 -458.57475m  699.9998m  494.9591n 
 -458.47475m  699.9998m  494.8226n 
 -458.37475m  699.9998m  494.6860n 
 -458.27475m  699.9998m  494.5494n 
 -458.17475m  699.9998m  494.4128n 
 -458.07475m  699.9998m  494.2763n 
 -457.97475m  699.9998m  494.1397n 
 -457.87475m  699.9998m  494.0031n 
 -457.77475m  699.9998m  493.8666n 
 -457.67475m  699.9998m  493.7300n 
 -457.57475m  699.9998m  493.5935n 
 -457.47475m  699.9998m  493.4569n 
 -457.37475m  699.9998m  493.3203n 
 -457.27475m  699.9998m  493.1838n 
 -457.17475m  699.9998m  493.0472n 
 -457.07475m  699.9998m  492.9106n 
 -456.97475m  699.9998m  492.7741n 
 -456.87475m  699.9998m  492.6375n 
 -456.77475m  699.9998m  492.5010n 
 -456.67475m  699.9998m  492.3644n 
 -456.57475m  699.9998m  492.2279n 
 -456.47475m  699.9998m  492.0913n 
 -456.37475m  699.9998m  491.9547n 
 -456.27475m  699.9998m  491.8182n 
 -456.17475m  699.9998m  491.6816n 
 -456.07475m  699.9998m  491.5451n 
 -455.97475m  699.9998m  491.4085n 
 -455.87475m  699.9998m  491.2720n 
 -455.77475m  699.9998m  491.1355n 
 -455.67475m  699.9998m  490.9989n 
 -455.57475m  699.9998m  490.8624n 
 -455.47475m  699.9998m  490.7258n 
 -455.37475m  699.9998m  490.5893n 
 -455.27475m  699.9998m  490.4528n 
 -455.17475m  699.9998m  490.3162n 
 -455.07475m  699.9998m  490.1797n 
 -454.97475m  699.9998m  490.0432n 
 -454.87475m  699.9998m  489.9066n 
 -454.77475m  699.9998m  489.7701n 
 -454.67475m  699.9998m  489.6336n 
 -454.57475m  699.9998m  489.4971n 
 -454.47475m  699.9998m  489.3606n 
 -454.37475m  699.9998m  489.2240n 
 -454.27475m  699.9998m  489.0875n 
 -454.17475m  699.9998m  488.9510n 
 -454.07475m  699.9998m  488.8145n 
 -453.97475m  699.9998m  488.6780n 
 -453.87475m  699.9998m  488.5415n 
 -453.77475m  699.9998m  488.4050n 
 -453.67475m  699.9998m  488.2685n 
 -453.57475m  699.9998m  488.1320n 
 -453.47475m  699.9998m  487.9955n 
 -453.37475m  699.9998m  487.8590n 
 -453.27475m  699.9998m  487.7225n 
 -453.17475m  699.9998m  487.5861n 
 -453.07475m  699.9998m  487.4496n 
 -452.97475m  699.9998m  487.3131n 
 -452.87475m  699.9998m  487.1766n 
 -452.77475m  699.9998m  487.0402n 
 -452.67475m  699.9998m  486.9037n 
 -452.57475m  699.9998m  486.7672n 
 -452.47475m  699.9998m  486.6308n 
 -452.37475m  699.9998m  486.4943n 
 -452.27475m  699.9998m  486.3579n 
 -452.17475m  699.9998m  486.2214n 
 -452.07475m  699.9998m  486.0850n 
 -451.97475m  699.9998m  485.9485n 
 -451.87475m  699.9998m  485.8121n 
 -451.77475m  699.9998m  485.6757n 
 -451.67475m  699.9998m  485.5392n 
 -451.57475m  699.9998m  485.4028n 
 -451.47475m  699.9998m  485.2664n 
 -451.37475m  699.9998m  485.1300n 
 -451.27475m  699.9998m  484.9935n 
 -451.17475m  699.9998m  484.8571n 
 -451.07475m  699.9998m  484.7207n 
 -450.97475m  699.9998m  484.5843n 
 -450.87475m  699.9998m  484.4479n 
 -450.77475m  699.9998m  484.3115n 
 -450.67475m  699.9998m  484.1752n 
 -450.57475m  699.9998m  484.0388n 
 -450.47475m  699.9998m  483.9024n 
 -450.37475m  699.9998m  483.7660n 
 -450.27475m  699.9998m  483.6297n 
 -450.17475m  699.9998m  483.4933n 
 -450.07475m  699.9998m  483.3569n 
 -449.97475m  699.9998m  483.2206n 
 -449.87475m  699.9998m  483.0842n 
 -449.77475m  699.9998m  482.9479n 
 -449.67475m  699.9998m  482.8116n 
 -449.57475m  699.9998m  482.6752n 
 -449.47475m  699.9998m  482.5389n 
 -449.37475m  699.9998m  482.4026n 
 -449.27475m  699.9998m  482.2662n 
 -449.17475m  699.9998m  482.1299n 
 -449.07475m  699.9998m  481.9936n 
 -448.97475m  699.9998m  481.8573n 
 -448.87475m  699.9998m  481.7210n 
 -448.77475m  699.9998m  481.5847n 
 -448.67475m  699.9998m  481.4485n 
 -448.57475m  699.9998m  481.3122n 
 -448.47475m  699.9998m  481.1759n 
 -448.37475m  699.9998m  481.0396n 
 -448.27475m  699.9998m  480.9034n 
 -448.17475m  699.9998m  480.7671n 
 -448.07475m  699.9998m  480.6309n 
 -447.97475m  699.9998m  480.4946n 
 -447.87475m  699.9998m  480.3584n 
 -447.77475m  699.9998m  480.2222n 
 -447.67475m  699.9998m  480.0859n 
 -447.57475m  699.9998m  479.9497n 
 -447.47475m  699.9998m  479.8135n 
 -447.37475m  699.9998m  479.6773n 
 -447.27475m  699.9998m  479.5411n 
 -447.17475m  699.9998m  479.4049n 
 -447.07475m  699.9998m  479.2687n 
 -446.97475m  699.9998m  479.1325n 
 -446.87475m  699.9998m  478.9964n 
 -446.77475m  699.9998m  478.8602n 
 -446.67475m  699.9998m  478.7240n 
 -446.57475m  699.9998m  478.5879n 
 -446.47475m  699.9998m  478.4517n 
 -446.37475m  699.9998m  478.3156n 
 -446.27475m  699.9998m  478.1795n 
 -446.17475m  699.9998m  478.0433n 
 -446.07475m  699.9998m  477.9072n 
 -445.97475m  699.9998m  477.7711n 
 -445.87475m  699.9998m  477.6350n 
 -445.77475m  699.9998m  477.4989n 
 -445.67475m  699.9998m  477.3628n 
 -445.57475m  699.9998m  477.2267n 
 -445.47475m  699.9998m  477.0907n 
 -445.37475m  699.9998m  476.9546n 
 -445.27475m  699.9998m  476.8185n 
 -445.17475m  699.9998m  476.6825n 
 -445.07475m  699.9998m  476.5465n 
 -444.97475m  699.9998m  476.4104n 
 -444.87475m  699.9998m  476.2744n 
 -444.77475m  699.9998m  476.1384n 
 -444.67475m  699.9998m  476.0024n 
 -444.57475m  699.9998m  475.8664n 
 -444.47475m  699.9998m  475.7304n 
 -444.37475m  699.9998m  475.5944n 
 -444.27475m  699.9998m  475.4584n 
 -444.17475m  699.9998m  475.3224n 
 -444.07475m  699.9998m  475.1865n 
 -443.97475m  699.9998m  475.0505n 
 -443.87475m  699.9998m  474.9146n 
 -443.77475m  699.9998m  474.7786n 
 -443.67475m  699.9998m  474.6427n 
 -443.57475m  699.9998m  474.5068n 
 -443.47475m  699.9998m  474.3709n 
 -443.37475m  699.9998m  474.2350n 
 -443.27475m  699.9998m  474.0991n 
 -443.17475m  699.9998m  473.9632n 
 -443.07475m  699.9998m  473.8273n 
 -442.97475m  699.9998m  473.6915n 
 -442.87475m  699.9998m  473.5556n 
 -442.77475m  699.9998m  473.4197n 
 -442.67475m  699.9998m  473.2839n 
 -442.57475m  699.9998m  473.1481n 
 -442.47475m  699.9998m  473.0123n 
 -442.37475m  699.9998m  472.8764n 
 -442.27475m  699.9998m  472.7406n 
 -442.17475m  699.9998m  472.6048n 
 -442.07475m  699.9998m  472.4691n 
 -441.97475m  699.9998m  472.3333n 
 -441.87475m  699.9998m  472.1975n 
 -441.77475m  699.9998m  472.0618n 
 -441.67475m  699.9998m  471.9260n 
 -441.57475m  699.9998m  471.7903n 
 -441.47475m  699.9998m  471.6546n 
 -441.37475m  699.9998m  471.5189n 
 -441.27475m  699.9998m  471.3832n 
 -441.17475m  699.9998m  471.2475n 
 -441.07475m  699.9998m  471.1118n 
 -440.97475m  699.9998m  470.9761n 
 -440.87475m  699.9998m  470.8404n 
 -440.77475m  699.9998m  470.7048n 
 -440.67475m  699.9998m  470.5691n 
 -440.57475m  699.9998m  470.4335n 
 -440.47475m  699.9998m  470.2979n 
 -440.37475m  699.9998m  470.1623n 
 -440.27475m  699.9998m  470.0267n 
 -440.17475m  699.9998m  469.8911n 
 -440.07475m  699.9998m  469.7555n 
 -439.97475m  699.9998m  469.6199n 
 -439.87475m  699.9998m  469.4844n 
 -439.77475m  699.9998m  469.3488n 
 -439.67475m  699.9998m  469.2133n 
 -439.57475m  699.9998m  469.0778n 
 -439.47475m  699.9998m  468.9422n 
 -439.37475m  699.9998m  468.8067n 
 -439.27475m  699.9998m  468.6712n 
 -439.17475m  699.9998m  468.5358n 
 -439.07475m  699.9998m  468.4003n 
 -438.97475m  699.9998m  468.2648n 
 -438.87475m  699.9998m  468.1294n 
 -438.77475m  699.9998m  467.9939n 
 -438.67475m  699.9998m  467.8585n 
 -438.57475m  699.9998m  467.7231n 
 -438.47475m  699.9998m  467.5877n 
 -438.37475m  699.9998m  467.4523n 
 -438.27475m  699.9998m  467.3169n 
 -438.17475m  699.9998m  467.1816n 
 -438.07475m  699.9998m  467.0462n 
 -437.97475m  699.9998m  466.9109n 
 -437.87475m  699.9998m  466.7755n 
 -437.77475m  699.9998m  466.6402n 
 -437.67475m  699.9998m  466.5049n 
 -437.57475m  699.9998m  466.3696n 
 -437.47475m  699.9998m  466.2343n 
 -437.37475m  699.9998m  466.0991n 
 -437.27475m  699.9998m  465.9638n 
 -437.17475m  699.9998m  465.8286n 
 -437.07475m  699.9998m  465.6933n 
 -436.97475m  699.9998m  465.5581n 
 -436.87475m  699.9998m  465.4229n 
 -436.77475m  699.9998m  465.2877n 
 -436.67475m  699.9998m  465.1525n 
 -436.57475m  699.9998m  465.0174n 
 -436.47475m  699.9998m  464.8822n 
 -436.37475m  699.9998m  464.7471n 
 -436.27475m  699.9998m  464.6119n 
 -436.17475m  699.9998m  464.4768n 
 -436.07475m  699.9998m  464.3417n 
 -435.97475m  699.9998m  464.2066n 
 -435.87475m  699.9998m  464.0715n 
 -435.77475m  699.9998m  463.9365n 
 -435.67475m  699.9998m  463.8014n 
 -435.57475m  699.9998m  463.6664n 
 -435.47475m  699.9998m  463.5314n 
 -435.37475m  699.9998m  463.3963n 
 -435.27475m  699.9998m  463.2613n 
 -435.17475m  699.9998m  463.1264n 
 -435.07475m  699.9998m  462.9914n 
 -434.97475m  699.9998m  462.8564n 
 -434.87475m  699.9998m  462.7215n 
 -434.77475m  699.9998m  462.5866n 
 -434.67475m  699.9998m  462.4516n 
 -434.57475m  699.9998m  462.3167n 
 -434.47475m  699.9998m  462.1819n 
 -434.37475m  699.9998m  462.0470n 
 -434.27475m  699.9998m  461.9121n 
 -434.17475m  699.9998m  461.7773n 
 -434.07475m  699.9998m  461.6424n 
 -433.97475m  699.9998m  461.5076n 
 -433.87475m  699.9998m  461.3728n 
 -433.77475m  699.9998m  461.2380n 
 -433.67475m  699.9998m  461.1033n 
 -433.57475m  699.9998m  460.9685n 
 -433.47475m  699.9998m  460.8338n 
 -433.37475m  699.9998m  460.6990n 
 -433.27475m  699.9998m  460.5643n 
 -433.17475m  699.9998m  460.4296n 
 -433.07475m  699.9998m  460.2949n 
 -432.97475m  699.9998m  460.1603n 
 -432.87475m  699.9998m  460.0256n 
 -432.77475m  699.9998m  459.8910n 
 -432.67475m  699.9998m  459.7563n 
 -432.57475m  699.9998m  459.6217n 
 -432.47475m  699.9998m  459.4871n 
 -432.37475m  699.9998m  459.3526n 
 -432.27475m  699.9998m  459.2180n 
 -432.17475m  699.9998m  459.0834n 
 -432.07475m  699.9998m  458.9489n 
 -431.97475m  699.9998m  458.8144n 
 -431.87475m  699.9998m  458.6799n 
 -431.77475m  699.9998m  458.5454n 
 -431.67475m  699.9998m  458.4109n 
 -431.57475m  699.9998m  458.2765n 
 -431.47475m  699.9998m  458.1420n 
 -431.37475m  699.9998m  458.0076n 
 -431.27475m  699.9998m  457.8732n 
 -431.17475m  699.9998m  457.7388n 
 -431.07475m  699.9998m  457.6044n 
 -430.97475m  699.9998m  457.4701n 
 -430.87475m  699.9998m  457.3357n 
 -430.77475m  699.9998m  457.2014n 
 -430.67475m  699.9998m  457.0671n 
 -430.57475m  699.9998m  456.9328n 
 -430.47475m  699.9998m  456.7985n 
 -430.37475m  699.9998m  456.6643n 
 -430.27475m  699.9998m  456.5300n 
 -430.17475m  699.9998m  456.3958n 
 -430.07475m  699.9998m  456.2616n 
 -429.97475m  699.9998m  456.1274n 
 -429.87475m  699.9998m  455.9932n 
 -429.77475m  699.9998m  455.8591n 
 -429.67475m  699.9998m  455.7249n 
 -429.57475m  699.9998m  455.5908n 
 -429.47475m  699.9998m  455.4567n 
 -429.37475m  699.9998m  455.3226n 
 -429.27475m  699.9998m  455.1885n 
 -429.17475m  699.9998m  455.0544n 
 -429.07475m  699.9998m  454.9204n 
 -428.97475m  699.9998m  454.7864n 
 -428.87475m  699.9998m  454.6524n 
 -428.77475m  699.9998m  454.5184n 
 -428.67475m  699.9998m  454.3844n 
 -428.57475m  699.9998m  454.2505n 
 -428.47475m  699.9998m  454.1165n 
 -428.37475m  699.9998m  453.9826n 
 -428.27475m  699.9998m  453.8487n 
 -428.17475m  699.9998m  453.7148n 
 -428.07475m  699.9998m  453.5809n 
 -427.97475m  699.9998m  453.4471n 
 -427.87475m  699.9998m  453.3133n 
 -427.77475m  699.9998m  453.1795n 
 -427.67475m  699.9998m  453.0457n 
 -427.57475m  699.9998m  452.9119n 
 -427.47475m  699.9998m  452.7781n 
 -427.37475m  699.9998m  452.6444n 
 -427.27475m  699.9998m  452.5107n 
 -427.17475m  699.9998m  452.3770n 
 -427.07475m  699.9998m  452.2433n 
 -426.97475m  699.9998m  452.1096n 
 -426.87475m  699.9998m  451.9760n 
 -426.77475m  699.9998m  451.8423n 
 -426.67475m  699.9998m  451.7087n 
 -426.57475m  699.9998m  451.5751n 
 -426.47475m  699.9998m  451.4416n 
 -426.37475m  699.9998m  451.3080n 
 -426.27475m  699.9998m  451.1745n 
 -426.17475m  699.9998m  451.0410n 
 -426.07475m  699.9998m  450.9075n 
 -425.97475m  699.9998m  450.7740n 
 -425.87475m  699.9998m  450.6405n 
 -425.77475m  699.9998m  450.5071n 
 -425.67475m  699.9998m  450.3737n 
 -425.57475m  699.9998m  450.2403n 
 -425.47475m  699.9998m  450.1069n 
 -425.37475m  699.9998m  449.9735n 
 -425.27475m  699.9998m  449.8402n 
 -425.17475m  699.9998m  449.7069n 
 -425.07475m  699.9998m  449.5736n 
 -424.97475m  699.9998m  449.4403n 
 -424.87475m  699.9998m  449.3070n 
 -424.77475m  699.9998m  449.1738n 
 -424.67475m  699.9998m  449.0406n 
 -424.57475m  699.9998m  448.9074n 
 -424.47475m  699.9998m  448.7742n 
 -424.37475m  699.9998m  448.6410n 
 -424.27475m  699.9998m  448.5079n 
 -424.17475m  699.9998m  448.3748n 
 -424.07475m  699.9998m  448.2417n 
 -423.97475m  699.9998m  448.1086n 
 -423.87475m  699.9998m  447.9755n 
 -423.77475m  699.9998m  447.8425n 
 -423.67475m  699.9998m  447.7095n 
 -423.57475m  699.9998m  447.5765n 
 -423.47475m  699.9998m  447.4435n 
 -423.37475m  699.9998m  447.3105n 
 -423.27475m  699.9998m  447.1776n 
 -423.17475m  699.9998m  447.0447n 
 -423.07475m  699.9998m  446.9118n 
 -422.97475m  699.9998m  446.7789n 
 -422.87475m  699.9998m  446.6460n 
 -422.77475m  699.9998m  446.5132n 
 -422.67475m  699.9998m  446.3804n 
 -422.57475m  699.9998m  446.2476n 
 -422.47475m  699.9998m  446.1148n 
 -422.37475m  699.9998m  445.9821n 
 -422.27475m  699.9998m  445.8494n 
 -422.17475m  699.9998m  445.7167n 
 -422.07475m  699.9998m  445.5840n 
 -421.97475m  699.9998m  445.4513n 
 -421.87475m  699.9998m  445.3187n 
 -421.77475m  699.9998m  445.1861n 
 -421.67475m  699.9998m  445.0535n 
 -421.57475m  699.9998m  444.9209n 
 -421.47475m  699.9998m  444.7883n 
 -421.37475m  699.9998m  444.6558n 
 -421.27475m  699.9998m  444.5233n 
 -421.17475m  699.9998m  444.3908n 
 -421.07475m  699.9998m  444.2583n 
 -420.97475m  699.9998m  444.1259n 
 -420.87475m  699.9998m  443.9935n 
 -420.77475m  699.9998m  443.8611n 
 -420.67475m  699.9998m  443.7287n 
 -420.57475m  699.9998m  443.5963n 
 -420.47475m  699.9998m  443.4640n 
 -420.37475m  699.9998m  443.3317n 
 -420.27475m  699.9998m  443.1994n 
 -420.17475m  699.9998m  443.0672n 
 -420.07475m  699.9998m  442.9349n 
 -419.97475m  699.9998m  442.8027n 
 -419.87475m  699.9998m  442.6705n 
 -419.77475m  699.9998m  442.5383n 
 -419.67475m  699.9998m  442.4062n 
 -419.57475m  699.9998m  442.2741n 
 -419.47475m  699.9998m  442.1420n 
 -419.37475m  699.9998m  442.0099n 
 -419.27475m  699.9998m  441.8778n 
 -419.17475m  699.9998m  441.7458n 
 -419.07475m  699.9998m  441.6138n 
 -418.97475m  699.9998m  441.4818n 
 -418.87475m  699.9998m  441.3498n 
 -418.77475m  699.9998m  441.2179n 
 -418.67475m  699.9998m  441.0860n 
 -418.57475m  699.9998m  440.9541n 
 -418.47475m  699.9998m  440.8222n 
 -418.37475m  699.9998m  440.6904n 
 -418.27475m  699.9998m  440.5585n 
 -418.17475m  699.9998m  440.4267n 
 -418.07475m  699.9998m  440.2950n 
 -417.97475m  699.9998m  440.1632n 
 -417.87475m  699.9998m  440.0315n 
 -417.77475m  699.9998m  439.8998n 
 -417.67475m  699.9998m  439.7681n 
 -417.57475m  699.9998m  439.6365n 
 -417.47475m  699.9998m  439.5048n 
 -417.37475m  699.9998m  439.3732n 
 -417.27475m  699.9998m  439.2416n 
 -417.17475m  699.9998m  439.1101n 
 -417.07475m  699.9998m  438.9786n 
 -416.97475m  699.9998m  438.8470n 
 -416.87475m  699.9998m  438.7156n 
 -416.77475m  699.9998m  438.5841n 
 -416.67475m  699.9998m  438.4527n 
 -416.57475m  699.9998m  438.3213n 
 -416.47475m  699.9998m  438.1899n 
 -416.37475m  699.9998m  438.0585n 
 -416.27475m  699.9998m  437.9272n 
 -416.17475m  699.9998m  437.7959n 
 -416.07475m  699.9998m  437.6646n 
 -415.97475m  699.9998m  437.5333n 
 -415.87475m  699.9998m  437.4021n 
 -415.77475m  699.9998m  437.2709n 
 -415.67475m  699.9998m  437.1397n 
 -415.57475m  699.9998m  437.0086n 
 -415.47475m  699.9998m  436.8774n 
 -415.37475m  699.9998m  436.7463n 
 -415.27475m  699.9998m  436.6153n 
 -415.17475m  699.9998m  436.4842n 
 -415.07475m  699.9998m  436.3532n 
 -414.97475m  699.9998m  436.2222n 
 -414.87475m  699.9998m  436.0912n 
 -414.77475m  699.9998m  435.9602n 
 -414.67475m  699.9998m  435.8293n 
 -414.57475m  699.9998m  435.6984n 
 -414.47475m  699.9998m  435.5675n 
 -414.37475m  699.9998m  435.4367n 
 -414.27475m  699.9998m  435.3059n 
 -414.17475m  699.9998m  435.1751n 
 -414.07475m  699.9998m  435.0443n 
 -413.97475m  699.9998m  434.9136n 
 -413.87475m  699.9998m  434.7829n 
 -413.77475m  699.9998m  434.6522n 
 -413.67475m  699.9998m  434.5215n 
 -413.57475m  699.9998m  434.3909n 
 -413.47475m  699.9998m  434.2603n 
 -413.37475m  699.9998m  434.1297n 
 -413.27475m  699.9998m  433.9991n 
 -413.17475m  699.9998m  433.8686n 
 -413.07475m  699.9998m  433.7381n 
 -412.97475m  699.9998m  433.6076n 
 -412.87475m  699.9998m  433.4772n 
 -412.77475m  699.9998m  433.3468n 
 -412.67475m  699.9998m  433.2164n 
 -412.57475m  699.9998m  433.0860n 
 -412.47475m  699.9998m  432.9557n 
 -412.37475m  699.9998m  432.8254n 
 -412.27475m  699.9998m  432.6951n 
 -412.17475m  699.9998m  432.5648n 
 -412.07475m  699.9998m  432.4346n 
 -411.97475m  699.9998m  432.3044n 
 -411.87475m  699.9998m  432.1742n 
 -411.77475m  699.9998m  432.0441n 
 -411.67475m  699.9998m  431.9140n 
 -411.57475m  699.9998m  431.7839n 
 -411.47475m  699.9998m  431.6538n 
 -411.37475m  699.9998m  431.5238n 
 -411.27475m  699.9998m  431.3938n 
 -411.17475m  699.9998m  431.2638n 
 -411.07475m  699.9998m  431.1338n 
 -410.97475m  699.9998m  431.0039n 
 -410.87475m  699.9998m  430.8740n 
 -410.77475m  699.9998m  430.7442n 
 -410.67475m  699.9998m  430.6143n 
 -410.57475m  699.9998m  430.4845n 
 -410.47475m  699.9998m  430.3547n 
 -410.37475m  699.9998m  430.2250n 
 -410.27475m  699.9998m  430.0953n 
 -410.17475m  699.9998m  429.9656n 
 -410.07475m  699.9998m  429.8359n 
 -409.97475m  699.9998m  429.7063n 
 -409.87475m  699.9998m  429.5767n 
 -409.77475m  699.9998m  429.4471n 
 -409.67475m  699.9998m  429.3175n 
 -409.57475m  699.9998m  429.1880n 
 -409.47475m  699.9998m  429.0585n 
 -409.37475m  699.9998m  428.9291n 
 -409.27475m  699.9998m  428.7996n 
 -409.17475m  699.9998m  428.6702n 
 -409.07475m  699.9998m  428.5409n 
 -408.97475m  699.9998m  428.4115n 
 -408.87475m  699.9999m  428.2822n 
 -408.77475m  699.9999m  428.1529n 
 -408.67475m  699.9999m  428.0237n 
 -408.57475m  699.9999m  427.8944n 
 -408.47475m  699.9999m  427.7652n 
 -408.37475m  699.9999m  427.6361n 
 -408.27475m  699.9999m  427.5069n 
 -408.17475m  699.9999m  427.3778n 
 -408.07475m  699.9999m  427.2488n 
 -407.97475m  699.9999m  427.1197n 
 -407.87475m  699.9999m  426.9907n 
 -407.77475m  699.9999m  426.8617n 
 -407.67475m  699.9999m  426.7328n 
 -407.57475m  699.9999m  426.6038n 
 -407.47475m  699.9999m  426.4749n 
 -407.37475m  699.9999m  426.3461n 
 -407.27475m  699.9999m  426.2172n 
 -407.17475m  699.9999m  426.0884n 
 -407.07475m  699.9999m  425.9597n 
 -406.97475m  699.9999m  425.8309n 
 -406.87475m  699.9999m  425.7022n 
 -406.77475m  699.9999m  425.5735n 
 -406.67475m  699.9999m  425.4449n 
 -406.57475m  699.9999m  425.3163n 
 -406.47475m  699.9999m  425.1877n 
 -406.37475m  699.9999m  425.0591n 
 -406.27475m  699.9999m  424.9306n 
 -406.17475m  699.9999m  424.8021n 
 -406.07475m  699.9999m  424.6736n 
 -405.97475m  699.9999m  424.5452n 
 -405.87475m  699.9999m  424.4168n 
 -405.77475m  699.9999m  424.2884n 
 -405.67475m  699.9999m  424.1601n 
 -405.57475m  699.9999m  424.0318n 
 -405.47475m  699.9999m  423.9035n 
 -405.37475m  699.9999m  423.7752n 
 -405.27475m  699.9999m  423.6470n 
 -405.17475m  699.9999m  423.5189n 
 -405.07475m  699.9999m  423.3907n 
 -404.97475m  699.9999m  423.2626n 
 -404.87475m  699.9999m  423.1345n 
 -404.77475m  699.9999m  423.0064n 
 -404.67475m  699.9999m  422.8784n 
 -404.57475m  699.9999m  422.7504n 
 -404.47475m  699.9999m  422.6225n 
 -404.37475m  699.9999m  422.4945n 
 -404.27475m  699.9999m  422.3667n 
 -404.17475m  699.9999m  422.2388n 
 -404.07475m  699.9999m  422.1110n 
 -403.97475m  699.9999m  421.9832n 
 -403.87475m  699.9999m  421.8554n 
 -403.77475m  699.9999m  421.7277n 
 -403.67475m  699.9999m  421.6000n 
 -403.57475m  699.9999m  421.4723n 
 -403.47475m  699.9999m  421.3447n 
 -403.37475m  699.9999m  421.2171n 
 -403.27475m  699.9999m  421.0895n 
 -403.17475m  699.9999m  420.9620n 
 -403.07475m  699.9999m  420.8345n 
 -402.97475m  699.9999m  420.7070n 
 -402.87475m  699.9999m  420.5796n 
 -402.77475m  699.9999m  420.4522n 
 -402.67475m  699.9999m  420.3248n 
 -402.57475m  699.9999m  420.1975n 
 -402.47475m  699.9999m  420.0702n 
 -402.37475m  699.9999m  419.9429n 
 -402.27475m  699.9999m  419.8157n 
 -402.17475m  699.9999m  419.6885n 
 -402.07475m  699.9999m  419.5613n 
 -401.97475m  699.9999m  419.4341n 
 -401.87475m  699.9999m  419.3070n 
 -401.77475m  699.9999m  419.1800n 
 -401.67475m  699.9999m  419.0529n 
 -401.57475m  699.9999m  418.9259n 
 -401.47475m  699.9999m  418.7990n 
 -401.37475m  699.9999m  418.6720n 
 -401.27475m  699.9999m  418.5451n 
 -401.17475m  699.9999m  418.4183n 
 -401.07475m  699.9999m  418.2915n 
 -400.97475m  699.9999m  418.1647n 
 -400.87475m  699.9999m  418.0379n 
 -400.77475m  699.9999m  417.9112n 
 -400.67475m  699.9999m  417.7845n 
 -400.57475m  699.9999m  417.6578n 
 -400.47475m  699.9999m  417.5312n 
 -400.37475m  699.9999m  417.4046n 
 -400.27475m  699.9999m  417.2781n 
 -400.17475m  699.9999m  417.1515n 
 -400.07475m  699.9999m  417.0250n 
 -399.97475m  699.9999m  416.8986n 
 -399.87475m  699.9999m  416.7722n 
 -399.77475m  699.9999m  416.6458n 
 -399.67475m  699.9999m  416.5195n 
 -399.57475m  699.9999m  416.3931n 
 -399.47475m  699.9999m  416.2669n 
 -399.37475m  699.9999m  416.1406n 
 -399.27475m  699.9999m  416.0144n 
 -399.17475m  699.9999m  415.8883n 
 -399.07475m  699.9999m  415.7621n 
 -398.97475m  699.9999m  415.6360n 
 -398.87475m  699.9999m  415.5100n 
 -398.77475m  699.9999m  415.3839n 
 -398.67475m  699.9999m  415.2579n 
 -398.57475m  699.9999m  415.1320n 
 -398.47475m  699.9999m  415.0061n 
 -398.37475m  699.9999m  414.8802n 
 -398.27475m  699.9999m  414.7543n 
 -398.17475m  699.9999m  414.6285n 
 -398.07475m  699.9999m  414.5027n 
 -397.97475m  699.9999m  414.3770n 
 -397.87475m  699.9999m  414.2513n 
 -397.77475m  699.9999m  414.1256n 
 -397.67475m  699.9999m  414.0000n 
 -397.57475m  699.9999m  413.8744n 
 -397.47475m  699.9999m  413.7488n 
 -397.37475m  699.9999m  413.6233n 
 -397.27475m  699.9999m  413.4978n 
 -397.17475m  699.9999m  413.3724n 
 -397.07475m  699.9999m  413.2469n 
 -396.97475m  699.9999m  413.1216n 
 -396.87475m  699.9999m  412.9962n 
 -396.77475m  699.9999m  412.8709n 
 -396.67475m  699.9999m  412.7456n 
 -396.57475m  699.9999m  412.6204n 
 -396.47475m  699.9999m  412.4952n 
 -396.37475m  699.9999m  412.3701n 
 -396.27475m  699.9999m  412.2449n 
 -396.17475m  699.9999m  412.1199n 
 -396.07475m  699.9999m  411.9948n 
 -395.97475m  699.9999m  411.8698n 
 -395.87475m  699.9999m  411.7448n 
 -395.77475m  699.9999m  411.6199n 
 -395.67475m  699.9999m  411.4950n 
 -395.57475m  699.9999m  411.3701n 
 -395.47475m  699.9999m  411.2453n 
 -395.37475m  699.9999m  411.1205n 
 -395.27475m  699.9999m  410.9958n 
 -395.17475m  699.9999m  410.8711n 
 -395.07475m  699.9999m  410.7464n 
 -394.97475m  699.9999m  410.6218n 
 -394.87475m  699.9999m  410.4972n 
 -394.77475m  699.9999m  410.3726n 
 -394.67475m  699.9999m  410.2481n 
 -394.57475m  699.9999m  410.1236n 
 -394.47475m  699.9999m  409.9992n 
 -394.37475m  699.9999m  409.8747n 
 -394.27475m  699.9999m  409.7504n 
 -394.17475m  699.9999m  409.6260n 
 -394.07475m  699.9999m  409.5018n 
 -393.97475m  699.9999m  409.3775n 
 -393.87475m  699.9999m  409.2533n 
 -393.77475m  699.9999m  409.1291n 
 -393.67475m  699.9999m  409.0050n 
 -393.57475m  699.9999m  408.8809n 
 -393.47475m  699.9999m  408.7568n 
 -393.37475m  699.9999m  408.6328n 
 -393.27475m  699.9999m  408.5088n 
 -393.17475m  699.9999m  408.3848n 
 -393.07475m  699.9999m  408.2609n 
 -392.97475m  699.9999m  408.1371n 
 -392.87475m  699.9999m  408.0132n 
 -392.77475m  699.9999m  407.8895n 
 -392.67475m  699.9999m  407.7657n 
 -392.57475m  699.9999m  407.6420n 
 -392.47475m  699.9999m  407.5183n 
 -392.37475m  699.9999m  407.3947n 
 -392.27475m  699.9999m  407.2711n 
 -392.17475m  699.9999m  407.1475n 
 -392.07475m  699.9999m  407.0240n 
 -391.97475m  699.9999m  406.9005n 
 -391.87475m  699.9999m  406.7771n 
 -391.77475m  699.9999m  406.6537n 
 -391.67475m  699.9999m  406.5304n 
 -391.57475m  699.9999m  406.4070n 
 -391.47475m  699.9999m  406.2838n 
 -391.37475m  699.9999m  406.1605n 
 -391.27475m  699.9999m  406.0373n 
 -391.17475m  699.9999m  405.9142n 
 -391.07475m  699.9999m  405.7911n 
 -390.97475m  699.9999m  405.6680n 
 -390.87475m  699.9999m  405.5449n 
 -390.77475m  699.9999m  405.4219n 
 -390.67475m  699.9999m  405.2990n 
 -390.57475m  699.9999m  405.1761n 
 -390.47475m  699.9999m  405.0532n 
 -390.37475m  699.9999m  404.9304n 
 -390.27475m  699.9999m  404.8076n 
 -390.17475m  699.9999m  404.6848n 
 -390.07475m  699.9999m  404.5621n 
 -389.97475m  699.9999m  404.4394n 
 -389.87475m  699.9999m  404.3168n 
 -389.77475m  699.9999m  404.1942n 
 -389.67475m  699.9999m  404.0716n 
 -389.57475m  699.9999m  403.9491n 
 -389.47475m  699.9999m  403.8267n 
 -389.37475m  699.9999m  403.7042n 
 -389.27475m  699.9999m  403.5818n 
 -389.17475m  699.9999m  403.4595n 
 -389.07475m  699.9999m  403.3372n 
 -388.97475m  699.9999m  403.2149n 
 -388.87475m  699.9999m  403.0927n 
 -388.77475m  699.9999m  402.9705n 
 -388.67475m  699.9999m  402.8484n 
 -388.57475m  699.9999m  402.7263n 
 -388.47475m  699.9999m  402.6042n 
 -388.37475m  699.9999m  402.4822n 
 -388.27475m  699.9999m  402.3602n 
 -388.17475m  699.9999m  402.2383n 
 -388.07475m  699.9999m  402.1164n 
 -387.97475m  699.9999m  401.9946n 
 -387.87475m  699.9999m  401.8728n 
 -387.77475m  699.9999m  401.7510n 
 -387.67475m  699.9999m  401.6293n 
 -387.57475m  699.9999m  401.5076n 
 -387.47475m  699.9999m  401.3859n 
 -387.37475m  699.9999m  401.2644n 
 -387.27475m  699.9999m  401.1428n 
 -387.17475m  699.9999m  401.0213n 
 -387.07475m  699.9999m  400.8998n 
 -386.97475m  699.9999m  400.7784n 
 -386.87475m  699.9999m  400.6570n 
 -386.77475m  699.9999m  400.5357n 
 -386.67475m  699.9999m  400.4144n 
 -386.57475m  699.9999m  400.2931n 
 -386.47475m  699.9999m  400.1719n 
 -386.37475m  699.9999m  400.0507n 
 -386.27475m  699.9999m  399.9296n 
 -386.17475m  699.9999m  399.8085n 
 -386.07475m  699.9999m  399.6875n 
 -385.97475m  699.9999m  399.5664n 
 -385.87475m  699.9999m  399.4455n 
 -385.77475m  699.9999m  399.3246n 
 -385.67475m  699.9999m  399.2037n 
 -385.57475m  699.9999m  399.0829n 
 -385.47475m  699.9999m  398.9621n 
 -385.37475m  699.9999m  398.8413n 
 -385.27475m  699.9999m  398.7206n 
 -385.17475m  699.9999m  398.6000n 
 -385.07475m  699.9999m  398.4794n 
 -384.97475m  699.9999m  398.3588n 
 -384.87475m  699.9999m  398.2383n 
 -384.77475m  699.9999m  398.1178n 
 -384.67475m  699.9999m  397.9974n 
 -384.57475m  699.9999m  397.8770n 
 -384.47475m  699.9999m  397.7566n 
 -384.37475m  699.9999m  397.6363n 
 -384.27475m  699.9999m  397.5160n 
 -384.17475m  699.9999m  397.3958n 
 -384.07475m  699.9999m  397.2757n 
 -383.97475m  699.9999m  397.1555n 
 -383.87475m  699.9999m  397.0354n 
 -383.77475m  699.9999m  396.9154n 
 -383.67475m  699.9999m  396.7954n 
 -383.57475m  699.9999m  396.6754n 
 -383.47475m  699.9999m  396.5555n 
 -383.37475m  699.9999m  396.4357n 
 -383.27475m  699.9999m  396.3158n 
 -383.17475m  699.9999m  396.1961n 
 -383.07475m  699.9999m  396.0763n 
 -382.97475m  699.9999m  395.9566n 
 -382.87475m  699.9999m  395.8370n 
 -382.77475m  699.9999m  395.7174n 
 -382.67475m  699.9999m  395.5979n 
 -382.57475m  699.9999m  395.4783n 
 -382.47475m  699.9999m  395.3589n 
 -382.37475m  699.9999m  395.2395n 
 -382.27475m  699.9999m  395.1201n 
 -382.17475m  699.9999m  395.0008n 
 -382.07475m  699.9999m  394.8815n 
 -381.97475m  699.9999m  394.7622n 
 -381.87475m  699.9999m  394.6430n 
 -381.77475m  699.9999m  394.5239n 
 -381.67475m  699.9999m  394.4048n 
 -381.57475m  699.9999m  394.2857n 
 -381.47475m  699.9999m  394.1667n 
 -381.37475m  699.9999m  394.0478n 
 -381.27475m  699.9999m  393.9288n 
 -381.17475m  699.9999m  393.8100n 
 -381.07475m  699.9999m  393.6911n 
 -380.97475m  699.9999m  393.5723n 
 -380.87475m  699.9999m  393.4536n 
 -380.77475m  699.9999m  393.3349n 
 -380.67475m  699.9999m  393.2163n 
 -380.57475m  699.9999m  393.0977n 
 -380.47475m  699.9999m  392.9791n 
 -380.37475m  699.9999m  392.8606n 
 -380.27475m  699.9999m  392.7421n 
 -380.17475m  699.9999m  392.6237n 
 -380.07475m  699.9999m  392.5054n 
 -379.97475m  699.9999m  392.3870n 
 -379.87475m  699.9999m  392.2688n 
 -379.77475m  699.9999m  392.1505n 
 -379.67475m  699.9999m  392.0323n 
 -379.57475m  699.9999m  391.9142n 
 -379.47475m  699.9999m  391.7961n 
 -379.37475m  699.9999m  391.6781n 
 -379.27475m  699.9999m  391.5601n 
 -379.17475m  699.9999m  391.4421n 
 -379.07475m  699.9999m  391.3242n 
 -378.97475m  699.9999m  391.2063n 
 -378.87475m  699.9999m  391.0885n 
 -378.77475m  699.9999m  390.9708n 
 -378.67475m  699.9999m  390.8531n 
 -378.57475m  699.9999m  390.7354n 
 -378.47475m  699.9999m  390.6178n 
 -378.37475m  699.9999m  390.5002n 
 -378.27475m  699.9999m  390.3827n 
 -378.17475m  699.9999m  390.2652n 
 -378.07475m  699.9999m  390.1477n 
 -377.97475m  699.9999m  390.0304n 
 -377.87475m  699.9999m  389.9130n 
 -377.77475m  699.9999m  389.7957n 
 -377.67475m  699.9999m  389.6785n 
 -377.57475m  699.9999m  389.5613n 
 -377.47475m  699.9999m  389.4441n 
 -377.37475m  699.9999m  389.3270n 
 -377.27475m  699.9999m  389.2100n 
 -377.17475m  699.9999m  389.0930n 
 -377.07475m  699.9999m  388.9760n 
 -376.97475m  699.9999m  388.8591n 
 -376.87475m  699.9999m  388.7422n 
 -376.77475m  699.9999m  388.6254n 
 -376.67475m  699.9999m  388.5087n 
 -376.57475m  699.9999m  388.3919n 
 -376.47475m  699.9999m  388.2753n 
 -376.37475m  699.9999m  388.1586n 
 -376.27475m  699.9999m  388.0421n 
 -376.17475m  699.9999m  387.9255n 
 -376.07475m  699.9999m  387.8091n 
 -375.97475m  699.9999m  387.6926n 
 -375.87475m  699.9999m  387.5763n 
 -375.77475m  699.9999m  387.4599n 
 -375.67475m  699.9999m  387.3436n 
 -375.57475m  699.9999m  387.2274n 
 -375.47475m  699.9999m  387.1112n 
 -375.37475m  699.9999m  386.9951n 
 -375.27475m  699.9999m  386.8790n 
 -375.17475m  699.9999m  386.7629n 
 -375.07475m  699.9999m  386.6470n 
 -374.97475m  699.9999m  386.5310n 
 -374.87475m  699.9999m  386.4151n 
 -374.77475m  699.9999m  386.2993n 
 -374.67475m  699.9999m  386.1835n 
 -374.57475m  699.9999m  386.0677n 
 -374.47475m  699.9999m  385.9520n 
 -374.37475m  699.9999m  385.8364n 
 -374.27475m  699.9999m  385.7208n 
 -374.17475m  699.9999m  385.6052n 
 -374.07475m  699.9999m  385.4898n 
 -373.97475m  699.9999m  385.3743n 
 -373.87475m  699.9999m  385.2589n 
 -373.77475m  699.9999m  385.1436n 
 -373.67475m  699.9999m  385.0282n 
 -373.57475m  699.9999m  384.9130n 
 -373.47475m  699.9999m  384.7978n 
 -373.37475m  699.9999m  384.6826n 
 -373.27475m  699.9999m  384.5675n 
 -373.17475m  699.9999m  384.4525n 
 -373.07475m  699.9999m  384.3375n 
 -372.97475m  699.9999m  384.2225n 
 -372.87475m  699.9999m  384.1076n 
 -372.77475m  699.9999m  383.9928n 
 -372.67475m  699.9999m  383.8780n 
 -372.57475m  699.9999m  383.7632n 
 -372.47475m  699.9999m  383.6485n 
 -372.37475m  699.9999m  383.5339n 
 -372.27475m  699.9999m  383.4193n 
 -372.17475m  699.9999m  383.3047n 
 -372.07475m  699.9999m  383.1902n 
 -371.97475m  699.9999m  383.0758n 
 -371.87475m  699.9999m  382.9614n 
 -371.77475m  699.9999m  382.8470n 
 -371.67475m  699.9999m  382.7327n 
 -371.57475m  699.9999m  382.6185n 
 -371.47475m  699.9999m  382.5043n 
 -371.37475m  699.9999m  382.3902n 
 -371.27475m  699.9999m  382.2761n 
 -371.17475m  699.9999m  382.1620n 
 -371.07475m  699.9999m  382.0480n 
 -370.97475m  699.9999m  381.9341n 
 -370.87475m  699.9999m  381.8202n 
 -370.77475m  699.9999m  381.7064n 
 -370.67475m  699.9999m  381.5926n 
 -370.57475m  699.9999m  381.4788n 
 -370.47475m  699.9999m  381.3652n 
 -370.37475m  699.9999m  381.2515n 
 -370.27475m  699.9999m  381.1379n 
 -370.17475m  699.9999m  381.0244n 
 -370.07475m  699.9999m  380.9109n 
 -369.97475m  699.9999m  380.7975n 
 -369.87475m  699.9999m  380.6841n 
 -369.77475m  699.9999m  380.5708n 
 -369.67475m  699.9999m  380.4575n 
 -369.57475m  699.9999m  380.3443n 
 -369.47475m  699.9999m  380.2311n 
 -369.37475m  699.9999m  380.1180n 
 -369.27475m  699.9999m  380.0050n 
 -369.17475m  699.9999m  379.8919n 
 -369.07475m  699.9999m  379.7790n 
 -368.97475m  699.9999m  379.6661n 
 -368.87475m  699.9999m  379.5532n 
 -368.77475m  699.9999m  379.4404n 
 -368.67475m  699.9999m  379.3277n 
 -368.57475m  699.9999m  379.2150n 
 -368.47475m  699.9999m  379.1023n 
 -368.37475m  699.9999m  378.9897n 
 -368.27475m  699.9999m  378.8772n 
 -368.17475m  699.9999m  378.7647n 
 -368.07475m  699.9999m  378.6523n 
 -367.97475m  699.9999m  378.5399n 
 -367.87475m  699.9999m  378.4275n 
 -367.77475m  699.9999m  378.3153n 
 -367.67475m  699.9999m  378.2030n 
 -367.57475m  699.9999m  378.0909n 
 -367.47475m  699.9999m  377.9787n 
 -367.37475m  699.9999m  377.8667n 
 -367.27475m  699.9999m  377.7547n 
 -367.17475m  699.9999m  377.6427n 
 -367.07475m  699.9999m  377.5308n 
 -366.97475m  699.9999m  377.4189n 
 -366.87475m  699.9999m  377.3071n 
 -366.77475m  699.9999m  377.1954n 
 -366.67475m  699.9999m  377.0837n 
 -366.57475m  699.9999m  376.9720n 
 -366.47475m  699.9999m  376.8604n 
 -366.37475m  699.9999m  376.7489n 
 -366.27475m  699.9999m  376.6374n 
 -366.17475m  699.9999m  376.5260n 
 -366.07475m  699.9999m  376.4146n 
 -365.97475m  699.9999m  376.3033n 
 -365.87475m  699.9999m  376.1920n 
 -365.77475m  699.9999m  376.0808n 
 -365.67475m  699.9999m  375.9696n 
 -365.57475m  699.9999m  375.8585n 
 -365.47475m  699.9999m  375.7475n 
 -365.37475m  699.9999m  375.6365n 
 -365.27475m  699.9999m  375.5255n 
 -365.17475m  699.9999m  375.4146n 
 -365.07475m  699.9999m  375.3038n 
 -364.97475m  699.9999m  375.1930n 
 -364.87475m  699.9999m  375.0823n 
 -364.77475m  699.9999m  374.9716n 
 -364.67475m  699.9999m  374.8610n 
 -364.57475m  699.9999m  374.7504n 
 -364.47475m  699.9999m  374.6399n 
 -364.37475m  699.9999m  374.5295n 
 -364.27475m  699.9999m  374.4191n 
 -364.17475m  699.9999m  374.3087n 
 -364.07475m  699.9999m  374.1984n 
 -363.97475m  699.9999m  374.0882n 
 -363.87475m  699.9999m  373.9780n 
 -363.77475m  699.9999m  373.8679n 
 -363.67475m  699.9999m  373.7578n 
 -363.57475m  699.9999m  373.6478n 
 -363.47475m  699.9999m  373.5378n 
 -363.37475m  699.9999m  373.4279n 
 -363.27475m  699.9999m  373.3180n 
 -363.17475m  699.9999m  373.2082n 
 -363.07475m  699.9999m  373.0985n 
 -362.97475m  699.9999m  372.9888n 
 -362.87475m  699.9999m  372.8791n 
 -362.77475m  699.9999m  372.7696n 
 -362.67475m  699.9999m  372.6600n 
 -362.57475m  699.9999m  372.5506n 
 -362.47475m  699.9999m  372.4412n 
 -362.37475m  699.9999m  372.3318n 
 -362.27475m  699.9999m  372.2225n 
 -362.17475m  699.9999m  372.1132n 
 -362.07475m  699.9999m  372.0040n 
 -361.97475m  699.9999m  371.8949n 
 -361.87475m  699.9999m  371.7858n 
 -361.77475m  699.9999m  371.6768n 
 -361.67475m  699.9999m  371.5678n 
 -361.57475m  699.9999m  371.4589n 
 -361.47475m  699.9999m  371.3501n 
 -361.37475m  699.9999m  371.2412n 
 -361.27475m  699.9999m  371.1325n 
 -361.17475m  699.9999m  371.0238n 
 -361.07475m  699.9999m  370.9152n 
 -360.97475m  699.9999m  370.8066n 
 -360.87475m  699.9999m  370.6981n 
 -360.77475m  699.9999m  370.5896n 
 -360.67475m  699.9999m  370.4812n 
 -360.57475m  699.9999m  370.3728n 
 -360.47475m  699.9999m  370.2645n 
 -360.37475m  699.9999m  370.1563n 
 -360.27475m  699.9999m  370.0481n 
 -360.17475m  699.9999m  369.9400n 
 -360.07475m  699.9999m  369.8319n 
 -359.97475m  699.9999m  369.7239n 
 -359.87475m  699.9999m  369.6159n 
 -359.77475m  699.9999m  369.5080n 
 -359.67475m  699.9999m  369.4002n 
 -359.57475m  699.9999m  369.2924n 
 -359.47475m  699.9999m  369.1846n 
 -359.37475m  699.9999m  369.0770n 
 -359.27475m  699.9999m  368.9693n 
 -359.17475m  699.9999m  368.8618n 
 -359.07475m  699.9999m  368.7543n 
 -358.97475m  699.9999m  368.6468n 
 -358.87475m  699.9999m  368.5394n 
 -358.77475m  699.9999m  368.4321n 
 -358.67475m  699.9999m  368.3248n 
 -358.57475m  699.9999m  368.2176n 
 -358.47475m  699.9999m  368.1104n 
 -358.37475m  699.9999m  368.0033n 
 -358.27475m  699.9999m  367.8963n 
 -358.17475m  699.9999m  367.7893n 
 -358.07475m  699.9999m  367.6824n 
 -357.97475m  699.9999m  367.5755n 
 -357.87475m  699.9999m  367.4687n 
 -357.77475m  699.9999m  367.3619n 
 -357.67475m  699.9999m  367.2552n 
 -357.57475m  699.9999m  367.1485n 
 -357.47475m  699.9999m  367.0420n 
 -357.37475m  699.9999m  366.9354n 
 -357.27475m  699.9999m  366.8290n 
 -357.17475m  699.9999m  366.7225n 
 -357.07475m  699.9999m  366.6162n 
 -356.97475m  699.9999m  366.5099n 
 -356.87475m  699.9999m  366.4036n 
 -356.77475m  699.9999m  366.2975n 
 -356.67475m  699.9999m  366.1913n 
 -356.57475m  699.9999m  366.0853n 
 -356.47475m  699.9999m  365.9792n 
 -356.37475m  699.9999m  365.8733n 
 -356.27475m  699.9999m  365.7674n 
 -356.17475m  699.9999m  365.6616n 
 -356.07475m  699.9999m  365.5558n 
 -355.97475m  699.9999m  365.4501n 
 -355.87475m  699.9999m  365.3444n 
 -355.77475m  699.9999m  365.2388n 
 -355.67475m  699.9999m  365.1333n 
 -355.57475m  699.9999m  365.0278n 
 -355.47475m  699.9999m  364.9224n 
 -355.37475m  699.9999m  364.8170n 
 -355.27475m  699.9999m  364.7117n 
 -355.17475m  699.9999m  364.6064n 
 -355.07475m  699.9999m  364.5012n 
 -354.97475m  699.9999m  364.3961n 
 -354.87475m  699.9999m  364.2910n 
 -354.77475m  699.9999m  364.1860n 
 -354.67475m  699.9999m  364.0811n 
 -354.57475m  699.9999m  363.9762n 
 -354.47475m  699.9999m  363.8713n 
 -354.37475m  699.9999m  363.7665n 
 -354.27475m  699.9999m  363.6618n 
 -354.17475m  699.9999m  363.5572n 
 -354.07475m  699.9999m  363.4526n 
 -353.97475m  699.9999m  363.3480n 
 -353.87475m  699.9999m  363.2435n 
 -353.77475m  699.9999m  363.1391n 
 -353.67475m  699.9999m  363.0348n 
 -353.57475m  699.9999m  362.9305n 
 -353.47475m  699.9999m  362.8262n 
 -353.37475m  699.9999m  362.7220n 
 -353.27475m  699.9999m  362.6179n 
 -353.17475m  699.9999m  362.5138n 
 -353.07475m  699.9999m  362.4098n 
 -352.97475m  699.9999m  362.3059n 
 -352.87475m  699.9999m  362.2020n 
 -352.77475m  699.9999m  362.0982n 
 -352.67475m  699.9999m  361.9944n 
 -352.57475m  699.9999m  361.8907n 
 -352.47475m  699.9999m  361.7870n 
 -352.37475m  699.9999m  361.6835n 
 -352.27475m  699.9999m  361.5799n 
 -352.17475m  699.9999m  361.4765n 
 -352.07475m  699.9999m  361.3730n 
 -351.97475m  699.9999m  361.2697n 
 -351.87475m  699.9999m  361.1664n 
 -351.77475m  699.9999m  361.0632n 
 -351.67475m  699.9999m  360.9600n 
 -351.57475m  699.9999m  360.8569n 
 -351.47475m  699.9999m  360.7539n 
 -351.37475m  699.9999m  360.6509n 
 -351.27475m  699.9999m  360.5480n 
 -351.17475m  699.9999m  360.4451n 
 -351.07475m  699.9999m  360.3423n 
 -350.97475m  699.9999m  360.2395n 
 -350.87475m  699.9999m  360.1369n 
 -350.77475m  699.9999m  360.0342n 
 -350.67475m  699.9999m  359.9317n 
 -350.57475m  699.9999m  359.8292n 
 -350.47475m  699.9999m  359.7267n 
 -350.37475m  699.9999m  359.6244n 
 -350.27475m  699.9999m  359.5220n 
 -350.17475m  699.9999m  359.4198n 
 -350.07475m  699.9999m  359.3176n 
 -349.97475m  699.9999m  359.2154n 
 -349.87475m  699.9999m  359.1134n 
 -349.77475m  699.9999m  359.0114n 
 -349.67475m  699.9999m  358.9094n 
 -349.57475m  699.9999m  358.8075n 
 -349.47475m  699.9999m  358.7057n 
 -349.37475m  699.9999m  358.6039n 
 -349.27475m  699.9999m  358.5022n 
 -349.17475m  699.9999m  358.4006n 
 -349.07475m  699.9999m  358.2990n 
 -348.97475m  699.9999m  358.1975n 
 -348.87475m  699.9999m  358.0960n 
 -348.77475m  699.9999m  357.9946n 
 -348.67475m  699.9999m  357.8933n 
 -348.57475m  699.9999m  357.7920n 
 -348.47475m  699.9999m  357.6908n 
 -348.37475m  699.9999m  357.5896n 
 -348.27475m  699.9999m  357.4885n 
 -348.17475m  699.9999m  357.3875n 
 -348.07475m  699.9999m  357.2865n 
 -347.97475m  699.9999m  357.1856n 
 -347.87475m  699.9999m  357.0848n 
 -347.77475m  699.9999m  356.9840n 
 -347.67475m  699.9999m  356.8833n 
 -347.57475m  699.9999m  356.7826n 
 -347.47475m  699.9999m  356.6820n 
 -347.37475m  699.9999m  356.5815n 
 -347.27475m  699.9999m  356.4810n 
 -347.17475m  699.9999m  356.3806n 
 -347.07475m  699.9999m  356.2802n 
 -346.97475m  699.9999m  356.1800n 
 -346.87475m  699.9999m  356.0797n 
 -346.77475m  699.9999m  355.9796n 
 -346.67475m  699.9999m  355.8795n 
 -346.57475m  699.9999m  355.7794n 
 -346.47475m  699.9999m  355.6795n 
 -346.37475m  699.9999m  355.5795n 
 -346.27475m  699.9999m  355.4797n 
 -346.17475m  699.9999m  355.3799n 
 -346.07475m  699.9999m  355.2802n 
 -345.97475m  699.9999m  355.1805n 
 -345.87475m  699.9999m  355.0809n 
 -345.77475m  699.9999m  354.9814n 
 -345.67475m  699.9999m  354.8819n 
 -345.57475m  699.9999m  354.7825n 
 -345.47475m  699.9999m  354.6832n 
 -345.37475m  699.9999m  354.5839n 
 -345.27475m  699.9999m  354.4847n 
 -345.17475m  699.9999m  354.3855n 
 -345.07475m  699.9999m  354.2864n 
 -344.97475m  699.9999m  354.1874n 
 -344.87475m  699.9999m  354.0884n 
 -344.77475m  699.9999m  353.9895n 
 -344.67475m  699.9999m  353.8906n 
 -344.57475m  699.9999m  353.7919n 
 -344.47475m  699.9999m  353.6931n 
 -344.37475m  699.9999m  353.5945n 
 -344.27475m  699.9999m  353.4959n 
 -344.17475m  699.9999m  353.3974n 
 -344.07475m  699.9999m  353.2989n 
 -343.97475m  699.9999m  353.2005n 
 -343.87475m  699.9999m  353.1022n 
 -343.77475m  699.9999m  353.0039n 
 -343.67475m  699.9999m  352.9057n 
 -343.57475m  699.9999m  352.8075n 
 -343.47475m  699.9999m  352.7095n 
 -343.37475m  699.9999m  352.6114n 
 -343.27475m  699.9999m  352.5135n 
 -343.17475m  699.9999m  352.4156n 
 -343.07475m  699.9999m  352.3178n 
 -342.97475m  699.9999m  352.2200n 
 -342.87475m  699.9999m  352.1223n 
 -342.77475m  699.9999m  352.0247n 
 -342.67475m  699.9999m  351.9271n 
 -342.57475m  699.9999m  351.8296n 
 -342.47475m  699.9999m  351.7321n 
 -342.37475m  699.9999m  351.6348n 
 -342.27475m  699.9999m  351.5375n 
 -342.17475m  699.9999m  351.4402n 
 -342.07475m  699.9999m  351.3430n 
 -341.97475m  699.9999m  351.2459n 
 -341.87475m  699.9999m  351.1488n 
 -341.77475m  699.9999m  351.0518n 
 -341.67475m  699.9999m  350.9549n 
 -341.57475m  699.9999m  350.8580n 
 -341.47475m  699.9999m  350.7612n 
 -341.37475m  699.9999m  350.6645n 
 -341.27475m  699.9999m  350.5678n 
 -341.17475m  699.9999m  350.4712n 
 -341.07475m  699.9999m  350.3747n 
 -340.97475m  699.9999m  350.2782n 
 -340.87475m  699.9999m  350.1818n 
 -340.77475m  699.9999m  350.0854n 
 -340.67475m  699.9999m  349.9892n 
 -340.57475m  699.9999m  349.8929n 
 -340.47475m  699.9999m  349.7968n 
 -340.37475m  699.9999m  349.7007n 
 -340.27475m  699.9999m  349.6047n 
 -340.17475m  699.9999m  349.5087n 
 -340.07475m  699.9999m  349.4128n 
 -339.97475m  699.9999m  349.3170n 
 -339.87475m  699.9999m  349.2212n 
 -339.77475m  699.9999m  349.1255n 
 -339.67475m  699.9999m  349.0299n 
 -339.57475m  699.9999m  348.9343n 
 -339.47475m  699.9999m  348.8388n 
 -339.37475m  699.9999m  348.7434n 
 -339.27475m  699.9999m  348.6480n 
 -339.17475m  699.9999m  348.5527n 
 -339.07475m  699.9999m  348.4574n 
 -338.97475m  699.9999m  348.3622n 
 -338.87475m  699.9999m  348.2671n 
 -338.77475m  699.9999m  348.1721n 
 -338.67475m  699.9999m  348.0771n 
 -338.57475m  699.9999m  347.9822n 
 -338.47475m  699.9999m  347.8873n 
 -338.37475m  699.9999m  347.7925n 
 -338.27475m  699.9999m  347.6978n 
 -338.17475m  699.9999m  347.6032n 
 -338.07475m  699.9999m  347.5086n 
 -337.97475m  699.9999m  347.4140n 
 -337.87475m  699.9999m  347.3196n 
 -337.77475m  699.9999m  347.2252n 
 -337.67475m  699.9999m  347.1309n 
 -337.57475m  699.9999m  347.0366n 
 -337.47475m  699.9999m  346.9424n 
 -337.37475m  699.9999m  346.8483n 
 -337.27475m  699.9999m  346.7542n 
 -337.17475m  699.9999m  346.6602n 
 -337.07475m  699.9999m  346.5663n 
 -336.97475m  699.9999m  346.4724n 
 -336.87475m  699.9999m  346.3786n 
 -336.77475m  699.9999m  346.2849n 
 -336.67475m  699.9999m  346.1912n 
 -336.57475m  699.9999m  346.0976n 
 -336.47475m  699.9999m  346.0041n 
 -336.37475m  699.9999m  345.9106n 
 -336.27475m  699.9999m  345.8172n 
 -336.17475m  699.9999m  345.7239n 
 -336.07475m  699.9999m  345.6306n 
 -335.97475m  699.9999m  345.5374n 
 -335.87475m  699.9999m  345.4443n 
 -335.77475m  699.9999m  345.3512n 
 -335.67475m  699.9999m  345.2582n 
 -335.57475m  699.9999m  345.1653n 
 -335.47475m  699.9999m  345.0724n 
 -335.37475m  699.9999m  344.9796n 
 -335.27475m  699.9999m  344.8869n 
 -335.17475m  699.9999m  344.7942n 
 -335.07475m  699.9999m  344.7016n 
 -334.97475m  699.9999m  344.6090n 
 -334.87475m  699.9999m  344.5166n 
 -334.77475m  699.9999m  344.4242n 
 -334.67475m  699.9999m  344.3318n 
 -334.57475m  699.9999m  344.2396n 
 -334.47475m  699.9999m  344.1474n 
 -334.37475m  699.9999m  344.0552n 
 -334.27475m  699.9999m  343.9632n 
 -334.17475m  699.9999m  343.8712n 
 -334.07475m  699.9999m  343.7792n 
 -333.97475m  699.9999m  343.6873n 
 -333.87475m  699.9999m  343.5955n 
 -333.77475m  699.9999m  343.5038n 
 -333.67475m  699.9999m  343.4121n 
 -333.57475m  699.9999m  343.3205n 
 -333.47475m  699.9999m  343.2290n 
 -333.37475m  699.9999m  343.1375n 
 -333.27475m  699.9999m  343.0462n 
 -333.17475m  699.9999m  342.9548n 
 -333.07475m  699.9999m  342.8636n 
 -332.97475m  699.9999m  342.7724n 
 -332.87475m  699.9999m  342.6812n 
 -332.77475m  699.9999m  342.5902n 
 -332.67475m  699.9999m  342.4992n 
 -332.57475m  699.9999m  342.4083n 
 -332.47475m  699.9999m  342.3174n 
 -332.37475m  699.9999m  342.2266n 
 -332.27475m  699.9999m  342.1359n 
 -332.17475m  699.9999m  342.0452n 
 -332.07475m  699.9999m  341.9546n 
 -331.97475m  699.9999m  341.8641n 
 -331.87475m  699.9999m  341.7737n 
 -331.77475m  699.9999m  341.6833n 
 -331.67475m  699.9999m  341.5930n 
 -331.57475m  699.9999m  341.5027n 
 -331.47475m  700.0000m  341.4125n 
 -331.37475m  700.0000m  341.3224n 
 -331.27475m  700.0000m  341.2324n 
 -331.17475m  700.0000m  341.1424n 
 -331.07475m  700.0000m  341.0525n 
 -330.97475m  700.0000m  340.9626n 
 -330.87475m  700.0000m  340.8729n 
 -330.77475m  700.0000m  340.7832n 
 -330.67475m  700.0000m  340.6935n 
 -330.57475m  700.0000m  340.6040n 
 -330.47475m  700.0000m  340.5145n 
 -330.37475m  700.0000m  340.4250n 
 -330.27475m  700.0000m  340.3357n 
 -330.17475m  700.0000m  340.2464n 
 -330.07475m  700.0000m  340.1571n 
 -329.97475m  700.0000m  340.0680n 
 -329.87475m  700.0000m  339.9789n 
 -329.77475m  700.0000m  339.8899n 
 -329.67475m  700.0000m  339.8009n 
 -329.57475m  700.0000m  339.7120n 
 -329.47475m  700.0000m  339.6232n 
 -329.37475m  700.0000m  339.5345n 
 -329.27475m  700.0000m  339.4458n 
 -329.17475m  700.0000m  339.3572n 
 -329.07475m  700.0000m  339.2686n 
 -328.97475m  700.0000m  339.1802n 
 -328.87475m  700.0000m  339.0917n 
 -328.77475m  700.0000m  339.0034n 
 -328.67475m  700.0000m  338.9151n 
 -328.57475m  700.0000m  338.8269n 
 -328.47475m  700.0000m  338.7388n 
 -328.37475m  700.0000m  338.6508n 
 -328.27475m  700.0000m  338.5628n 
 -328.17475m  700.0000m  338.4748n 
 -328.07475m  700.0000m  338.3870n 
 -327.97475m  700.0000m  338.2992n 
 -327.87475m  700.0000m  338.2115n 
 -327.77475m  700.0000m  338.1238n 
 -327.67475m  700.0000m  338.0362n 
 -327.57475m  700.0000m  337.9487n 
 -327.47475m  700.0000m  337.8613n 
 -327.37475m  700.0000m  337.7739n 
 -327.27475m  700.0000m  337.6866n 
 -327.17475m  700.0000m  337.5994n 
 -327.07475m  700.0000m  337.5122n 
 -326.97475m  700.0000m  337.4251n 
 -326.87475m  700.0000m  337.3381n 
 -326.77475m  700.0000m  337.2511n 
 -326.67475m  700.0000m  337.1643n 
 -326.57475m  700.0000m  337.0774n 
 -326.47475m  700.0000m  336.9907n 
 -326.37475m  700.0000m  336.9040n 
 -326.27475m  700.0000m  336.8174n 
 -326.17475m  700.0000m  336.7309n 
 -326.07475m  700.0000m  336.6444n 
 -325.97475m  700.0000m  336.5580n 
 -325.87475m  700.0000m  336.4717n 
 -325.77475m  700.0000m  336.3854n 
 -325.67475m  700.0000m  336.2992n 
 -325.57475m  700.0000m  336.2131n 
 -325.47475m  700.0000m  336.1270n 
 -325.37475m  700.0000m  336.0410n 
 -325.27475m  700.0000m  335.9551n 
 -325.17475m  700.0000m  335.8693n 
 -325.07475m  700.0000m  335.7835n 
 -324.97475m  700.0000m  335.6978n 
 -324.87475m  700.0000m  335.6122n 
 -324.77475m  700.0000m  335.5266n 
 -324.67475m  700.0000m  335.4411n 
 -324.57475m  700.0000m  335.3557n 
 -324.47475m  700.0000m  335.2703n 
 -324.37475m  700.0000m  335.1850n 
 -324.27475m  700.0000m  335.0998n 
 -324.17475m  700.0000m  335.0147n 
 -324.07475m  700.0000m  334.9296n 
 -323.97475m  700.0000m  334.8446n 
 -323.87475m  700.0000m  334.7597n 
 -323.77475m  700.0000m  334.6748n 
 -323.67475m  700.0000m  334.5900n 
 -323.57475m  700.0000m  334.5053n 
 -323.47475m  700.0000m  334.4206n 
 -323.37475m  700.0000m  334.3360n 
 -323.27475m  700.0000m  334.2515n 
 -323.17475m  700.0000m  334.1671n 
 -323.07475m  700.0000m  334.0827n 
 -322.97475m  700.0000m  333.9984n 
 -322.87475m  700.0000m  333.9142n 
 -322.77475m  700.0000m  333.8300n 
 -322.67475m  700.0000m  333.7459n 
 -322.57475m  700.0000m  333.6619n 
 -322.47475m  700.0000m  333.5779n 
 -322.37475m  700.0000m  333.4941n 
 -322.27475m  700.0000m  333.4102n 
 -322.17475m  700.0000m  333.3265n 
 -322.07475m  700.0000m  333.2428n 
 -321.97475m  700.0000m  333.1592n 
 -321.87475m  700.0000m  333.0757n 
 -321.77475m  700.0000m  332.9922n 
 -321.67475m  700.0000m  332.9089n 
 -321.57475m  700.0000m  332.8255n 
 -321.47475m  700.0000m  332.7423n 
 -321.37475m  700.0000m  332.6591n 
 -321.27475m  700.0000m  332.5760n 
 -321.17475m  700.0000m  332.4930n 
 -321.07475m  700.0000m  332.4100n 
 -320.97475m  700.0000m  332.3271n 
 -320.87475m  700.0000m  332.2443n 
 -320.77475m  700.0000m  332.1616n 
 -320.67475m  700.0000m  332.0789n 
 -320.57475m  700.0000m  331.9963n 
 -320.47475m  700.0000m  331.9137n 
 -320.37475m  700.0000m  331.8313n 
 -320.27475m  700.0000m  331.7489n 
 -320.17475m  700.0000m  331.6665n 
 -320.07475m  700.0000m  331.5843n 
 -319.97475m  700.0000m  331.5021n 
 -319.87475m  700.0000m  331.4200n 
 -319.77475m  700.0000m  331.3379n 
 -319.67475m  700.0000m  331.2560n 
 -319.57475m  700.0000m  331.1741n 
 -319.47475m  700.0000m  331.0923n 
 -319.37475m  700.0000m  331.0105n 
 -319.27475m  700.0000m  330.9288n 
 -319.17475m  700.0000m  330.8472n 
 -319.07475m  700.0000m  330.7657n 
 -318.97475m  700.0000m  330.6842n 
 -318.87475m  700.0000m  330.6028n 
 -318.77475m  700.0000m  330.5215n 
 -318.67475m  700.0000m  330.4402n 
 -318.57475m  700.0000m  330.3590n 
 -318.47475m  700.0000m  330.2779n 
 -318.37475m  700.0000m  330.1969n 
 -318.27475m  700.0000m  330.1159n 
 -318.17475m  700.0000m  330.0350n 
 -318.07475m  700.0000m  329.9542n 
 -317.97475m  700.0000m  329.8734n 
 -317.87475m  700.0000m  329.7927n 
 -317.77475m  700.0000m  329.7121n 
 -317.67475m  700.0000m  329.6316n 
 -317.57475m  700.0000m  329.5511n 
 -317.47475m  700.0000m  329.4707n 
 -317.37475m  700.0000m  329.3904n 
 -317.27475m  700.0000m  329.3101n 
 -317.17475m  700.0000m  329.2299n 
 -317.07475m  700.0000m  329.1498n 
 -316.97475m  700.0000m  329.0698n 
 -316.87475m  700.0000m  328.9898n 
 -316.77475m  700.0000m  328.9099n 
 -316.67475m  700.0000m  328.8301n 
 -316.57475m  700.0000m  328.7503n 
 -316.47475m  700.0000m  328.6706n 
 -316.37475m  700.0000m  328.5910n 
 -316.27475m  700.0000m  328.5115n 
 -316.17475m  700.0000m  328.4320n 
 -316.07475m  700.0000m  328.3526n 
 -315.97475m  700.0000m  328.2733n 
 -315.87475m  700.0000m  328.1941n 
 -315.77475m  700.0000m  328.1149n 
 -315.67475m  700.0000m  328.0358n 
 -315.57475m  700.0000m  327.9567n 
 -315.47475m  700.0000m  327.8778n 
 -315.37475m  700.0000m  327.7989n 
 -315.27475m  700.0000m  327.7201n 
 -315.17475m  700.0000m  327.6413n 
 -315.07475m  700.0000m  327.5626n 
 -314.97475m  700.0000m  327.4840n 
 -314.87475m  700.0000m  327.4055n 
 -314.77475m  700.0000m  327.3271n 
 -314.67475m  700.0000m  327.2487n 
 -314.57475m  700.0000m  327.1704n 
 -314.47475m  700.0000m  327.0921n 
 -314.37475m  700.0000m  327.0140n 
 -314.27475m  700.0000m  326.9359n 
 -314.17475m  700.0000m  326.8578n 
 -314.07475m  700.0000m  326.7799n 
 -313.97475m  700.0000m  326.7020n 
 -313.87475m  700.0000m  326.6242n 
 -313.77475m  700.0000m  326.5465n 
 -313.67475m  700.0000m  326.4688n 
 -313.57475m  700.0000m  326.3912n 
 -313.47475m  700.0000m  326.3137n 
 -313.37475m  700.0000m  326.2362n 
 -313.27475m  700.0000m  326.1589n 
 -313.17475m  700.0000m  326.0816n 
 -313.07475m  700.0000m  326.0043n 
 -312.97475m  700.0000m  325.9272n 
 -312.87475m  700.0000m  325.8501n 
 -312.77475m  700.0000m  325.7731n 
 -312.67475m  700.0000m  325.6962n 
 -312.57475m  700.0000m  325.6193n 
 -312.47475m  700.0000m  325.5425n 
 -312.37475m  700.0000m  325.4658n 
 -312.27475m  700.0000m  325.3891n 
 -312.17475m  700.0000m  325.3126n 
 -312.07475m  700.0000m  325.2361n 
 -311.97475m  700.0000m  325.1596n 
 -311.87475m  700.0000m  325.0833n 
 -311.77475m  700.0000m  325.0070n 
 -311.67475m  700.0000m  324.9308n 
 -311.57475m  700.0000m  324.8546n 
 -311.47475m  700.0000m  324.7786n 
 -311.37475m  700.0000m  324.7026n 
 -311.27475m  700.0000m  324.6267n 
 -311.17475m  700.0000m  324.5508n 
 -311.07475m  700.0000m  324.4750n 
 -310.97475m  700.0000m  324.3993n 
 -310.87475m  700.0000m  324.3237n 
 -310.77475m  700.0000m  324.2482n 
 -310.67475m  700.0000m  324.1727n 
 -310.57475m  700.0000m  324.0973n 
 -310.47475m  700.0000m  324.0219n 
 -310.37475m  700.0000m  323.9467n 
 -310.27475m  700.0000m  323.8715n 
 -310.17475m  700.0000m  323.7964n 
 -310.07475m  700.0000m  323.7213n 
 -309.97475m  700.0000m  323.6464n 
 -309.87475m  700.0000m  323.5715n 
 -309.77475m  700.0000m  323.4966n 
 -309.67475m  700.0000m  323.4219n 
 -309.57475m  700.0000m  323.3472n 
 -309.47475m  700.0000m  323.2726n 
 -309.37475m  700.0000m  323.1981n 
 -309.27475m  700.0000m  323.1236n 
 -309.17475m  700.0000m  323.0492n 
 -309.07475m  700.0000m  322.9749n 
 -308.97475m  700.0000m  322.9007n 
 -308.87475m  700.0000m  322.8265n 
 -308.77475m  700.0000m  322.7524n 
 -308.67475m  700.0000m  322.6784n 
 -308.57475m  700.0000m  322.6044n 
 -308.47475m  700.0000m  322.5306n 
 -308.37475m  700.0000m  322.4568n 
 -308.27475m  700.0000m  322.3830n 
 -308.17475m  700.0000m  322.3094n 
 -308.07475m  700.0000m  322.2358n 
 -307.97475m  700.0000m  322.1623n 
 -307.87475m  700.0000m  322.0889n 
 -307.77475m  700.0000m  322.0155n 
 -307.67475m  700.0000m  321.9422n 
 -307.57475m  700.0000m  321.8690n 
 -307.47475m  700.0000m  321.7959n 
 -307.37475m  700.0000m  321.7228n 
 -307.27475m  700.0000m  321.6498n 
 -307.17475m  700.0000m  321.5769n 
 -307.07475m  700.0000m  321.5040n 
 -306.97475m  700.0000m  321.4313n 
 -306.87475m  700.0000m  321.3586n 
 -306.77475m  700.0000m  321.2859n 
 -306.67475m  700.0000m  321.2134n 
 -306.57475m  700.0000m  321.1409n 
 -306.47475m  700.0000m  321.0685n 
 -306.37475m  700.0000m  320.9962n 
 -306.27475m  700.0000m  320.9239n 
 -306.17475m  700.0000m  320.8517n 
 -306.07475m  700.0000m  320.7796n 
 -305.97475m  700.0000m  320.7076n 
 -305.87475m  700.0000m  320.6356n 
 -305.77475m  700.0000m  320.5637n 
 -305.67475m  700.0000m  320.4919n 
 -305.57475m  700.0000m  320.4202n 
 -305.47475m  700.0000m  320.3485n 
 -305.37475m  700.0000m  320.2769n 
 -305.27475m  700.0000m  320.2054n 
 -305.17475m  700.0000m  320.1339n 
 -305.07475m  700.0000m  320.0626n 
 -304.97475m  700.0000m  319.9913n 
 -304.87475m  700.0000m  319.9200n 
 -304.77475m  700.0000m  319.8489n 
 -304.67475m  700.0000m  319.7778n 
 -304.57475m  700.0000m  319.7068n 
 -304.47475m  700.0000m  319.6359n 
 -304.37475m  700.0000m  319.5650n 
 -304.27475m  700.0000m  319.4942n 
 -304.17475m  700.0000m  319.4235n 
 -304.07475m  700.0000m  319.3529n 
 -303.97475m  700.0000m  319.2823n 
 -303.87475m  700.0000m  319.2118n 
 -303.77475m  700.0000m  319.1414n 
 -303.67475m  700.0000m  319.0711n 
 -303.57475m  700.0000m  319.0008n 
 -303.47475m  700.0000m  318.9306n 
 -303.37475m  700.0000m  318.8605n 
 -303.27475m  700.0000m  318.7905n 
 -303.17475m  700.0000m  318.7205n 
 -303.07475m  700.0000m  318.6506n 
 -302.97475m  700.0000m  318.5808n 
 -302.87475m  700.0000m  318.5110n 
 -302.77475m  700.0000m  318.4414n 
 -302.67475m  700.0000m  318.3718n 
 -302.57475m  700.0000m  318.3022n 
 -302.47475m  700.0000m  318.2328n 
 -302.37475m  700.0000m  318.1634n 
 -302.27475m  700.0000m  318.0941n 
 -302.17475m  700.0000m  318.0249n 
 -302.07475m  700.0000m  317.9557n 
 -301.97475m  700.0000m  317.8866n 
 -301.87475m  700.0000m  317.8176n 
 -301.77475m  700.0000m  317.7487n 
 -301.67475m  700.0000m  317.6798n 
 -301.57475m  700.0000m  317.6110n 
 -301.47475m  700.0000m  317.5423n 
 -301.37475m  700.0000m  317.4737n 
 -301.27475m  700.0000m  317.4051n 
 -301.17475m  700.0000m  317.3366n 
 -301.07475m  700.0000m  317.2682n 
 -300.97475m  700.0000m  317.1999n 
 -300.87475m  700.0000m  317.1316n 
 -300.77475m  700.0000m  317.0634n 
 -300.67475m  700.0000m  316.9953n 
 -300.57475m  700.0000m  316.9273n 
 -300.47475m  700.0000m  316.8593n 
 -300.37475m  700.0000m  316.7914n 
 -300.27475m  700.0000m  316.7236n 
 -300.17475m  700.0000m  316.6558n 
 -300.07475m  700.0000m  316.5882n 
 -299.97475m  700.0000m  316.5206n 
 -299.87475m  700.0000m  316.4530n 
 -299.77475m  700.0000m  316.3856n 
 -299.67475m  700.0000m  316.3182n 
 -299.57475m  700.0000m  316.2509n 
 -299.47475m  700.0000m  316.1837n 
 -299.37475m  700.0000m  316.1165n 
 -299.27475m  700.0000m  316.0494n 
 -299.17475m  700.0000m  315.9824n 
 -299.07475m  700.0000m  315.9155n 
 -298.97475m  700.0000m  315.8487n 
 -298.87475m  700.0000m  315.7819n 
 -298.77475m  700.0000m  315.7152n 
 -298.67475m  700.0000m  315.6485n 
 -298.57475m  700.0000m  315.5820n 
 -298.47475m  700.0000m  315.5155n 
 -298.37475m  700.0000m  315.4491n 
 -298.27475m  700.0000m  315.3828n 
 -298.17475m  700.0000m  315.3165n 
 -298.07475m  700.0000m  315.2503n 
 -297.97475m  700.0000m  315.1842n 
 -297.87475m  700.0000m  315.1182n 
 -297.77475m  700.0000m  315.0522n 
 -297.67475m  700.0000m  314.9863n 
 -297.57475m  700.0000m  314.9205n 
 -297.47475m  700.0000m  314.8547n 
 -297.37475m  700.0000m  314.7891n 
 -297.27475m  700.0000m  314.7235n 
 -297.17475m  700.0000m  314.6580n 
 -297.07475m  700.0000m  314.5925n 
 -296.97475m  700.0000m  314.5272n 
 -296.87475m  700.0000m  314.4619n 
 -296.77475m  700.0000m  314.3967n 
 -296.67475m  700.0000m  314.3315n 
 -296.57475m  700.0000m  314.2664n 
 -296.47475m  700.0000m  314.2014n 
 -296.37475m  700.0000m  314.1365n 
 -296.27475m  700.0000m  314.0717n 
 -296.17475m  700.0000m  314.0069n 
 -296.07475m  700.0000m  313.9422n 
 -295.97475m  700.0000m  313.8776n 
 -295.87475m  700.0000m  313.8130n 
 -295.77475m  700.0000m  313.7486n 
 -295.67475m  700.0000m  313.6842n 
 -295.57475m  700.0000m  313.6198n 
 -295.47475m  700.0000m  313.5556n 
 -295.37475m  700.0000m  313.4914n 
 -295.27475m  700.0000m  313.4273n 
 -295.17475m  700.0000m  313.3633n 
 -295.07475m  700.0000m  313.2993n 
 -294.97475m  700.0000m  313.2355n 
 -294.87475m  700.0000m  313.1717n 
 -294.77475m  700.0000m  313.1079n 
 -294.67475m  700.0000m  313.0443n 
 -294.57475m  700.0000m  312.9807n 
 -294.47475m  700.0000m  312.9172n 
 -294.37475m  700.0000m  312.8538n 
 -294.27475m  700.0000m  312.7904n 
 -294.17475m  700.0000m  312.7271n 
 -294.07475m  700.0000m  312.6639n 
 -293.97475m  700.0000m  312.6008n 
 -293.87475m  700.0000m  312.5377n 
 -293.77475m  700.0000m  312.4747n 
 -293.67475m  700.0000m  312.4118n 
 -293.57475m  700.0000m  312.3490n 
 -293.47475m  700.0000m  312.2862n 
 -293.37475m  700.0000m  312.2236n 
 -293.27475m  700.0000m  312.1609n 
 -293.17475m  700.0000m  312.0984n 
 -293.07475m  700.0000m  312.0359n 
 -292.97475m  700.0000m  311.9736n 
 -292.87475m  700.0000m  311.9112n 
 -292.77475m  700.0000m  311.8490n 
 -292.67475m  700.0000m  311.7868n 
 -292.57475m  700.0000m  311.7248n 
 -292.47475m  700.0000m  311.6627n 
 -292.37475m  700.0000m  311.6008n 
 -292.27475m  700.0000m  311.5389n 
 -292.17475m  700.0000m  311.4772n 
 -292.07475m  700.0000m  311.4154n 
 -291.97475m  700.0000m  311.3538n 
 -291.87475m  700.0000m  311.2922n 
 -291.77475m  700.0000m  311.2307n 
 -291.67475m  700.0000m  311.1693n 
 -291.57475m  700.0000m  311.1080n 
 -291.47475m  700.0000m  311.0467n 
 -291.37475m  700.0000m  310.9855n 
 -291.27475m  700.0000m  310.9244n 
 -291.17475m  700.0000m  310.8634n 
 -291.07475m  700.0000m  310.8024n 
 -290.97475m  700.0000m  310.7415n 
 -290.87475m  700.0000m  310.6807n 
 -290.77475m  700.0000m  310.6199n 
 -290.67475m  700.0000m  310.5593n 
 -290.57475m  700.0000m  310.4987n 
 -290.47475m  700.0000m  310.4382n 
 -290.37475m  700.0000m  310.3777n 
 -290.27475m  700.0000m  310.3173n 
 -290.17475m  700.0000m  310.2570n 
 -290.07475m  700.0000m  310.1968n 
 -289.97475m  700.0000m  310.1367n 
 -289.87475m  700.0000m  310.0766n 
 -289.77475m  700.0000m  310.0166n 
 -289.67475m  700.0000m  309.9567n 
 -289.57475m  700.0000m  309.8968n 
 -289.47475m  700.0000m  309.8370n 
 -289.37475m  700.0000m  309.7773n 
 -289.27475m  700.0000m  309.7177n 
 -289.17475m  700.0000m  309.6582n 
 -289.07475m  700.0000m  309.5987n 
 -288.97475m  700.0000m  309.5393n 
 -288.87475m  700.0000m  309.4800n 
 -288.77475m  700.0000m  309.4207n 
 -288.67475m  700.0000m  309.3615n 
 -288.57475m  700.0000m  309.3024n 
 -288.47475m  700.0000m  309.2434n 
 -288.37475m  700.0000m  309.1844n 
 -288.27475m  700.0000m  309.1256n 
 -288.17475m  700.0000m  309.0668n 
 -288.07475m  700.0000m  309.0080n 
 -287.97475m  700.0000m  308.9494n 
 -287.87475m  700.0000m  308.8908n 
 -287.77475m  700.0000m  308.8323n 
 -287.67475m  700.0000m  308.7739n 
 -287.57475m  700.0000m  308.7155n 
 -287.47475m  700.0000m  308.6572n 
 -287.37475m  700.0000m  308.5990n 
 -287.27475m  700.0000m  308.5409n 
 -287.17475m  700.0000m  308.4828n 
 -287.07475m  700.0000m  308.4248n 
 -286.97475m  700.0000m  308.3669n 
 -286.87475m  700.0000m  308.3091n 
 -286.77475m  700.0000m  308.2513n 
 -286.67475m  700.0000m  308.1936n 
 -286.57475m  700.0000m  308.1360n 
 -286.47475m  700.0000m  308.0785n 
 -286.37475m  700.0000m  308.0210n 
 -286.27475m  700.0000m  307.9636n 
 -286.17475m  700.0000m  307.9063n 
 -286.07475m  700.0000m  307.8491n 
 -285.97475m  700.0000m  307.7919n 
 -285.87475m  700.0000m  307.7348n 
 -285.77475m  700.0000m  307.6778n 
 -285.67475m  700.0000m  307.6209n 
 -285.57475m  700.0000m  307.5640n 
 -285.47475m  700.0000m  307.5072n 
 -285.37475m  700.0000m  307.4505n 
 -285.27475m  700.0000m  307.3938n 
 -285.17475m  700.0000m  307.3373n 
 -285.07475m  700.0000m  307.2808n 
 -284.97475m  700.0000m  307.2244n 
 -284.87475m  700.0000m  307.1680n 
 -284.77475m  700.0000m  307.1117n 
 -284.67475m  700.0000m  307.0555n 
 -284.57475m  700.0000m  306.9994n 
 -284.47475m  700.0000m  306.9434n 
 -284.37475m  700.0000m  306.8874n 
 -284.27475m  700.0000m  306.8315n 
 -284.17475m  700.0000m  306.7757n 
 -284.07475m  700.0000m  306.7199n 
 -283.97475m  700.0000m  306.6642n 
 -283.87475m  700.0000m  306.6086n 
 -283.77475m  700.0000m  306.5531n 
 -283.67475m  700.0000m  306.4977n 
 -283.57475m  700.0000m  306.4423n 
 -283.47475m  700.0000m  306.3870n 
 -283.37475m  700.0000m  306.3317n 
 -283.27475m  700.0000m  306.2766n 
 -283.17475m  700.0000m  306.2215n 
 -283.07475m  700.0000m  306.1665n 
 -282.97475m  700.0000m  306.1116n 
 -282.87475m  700.0000m  306.0567n 
 -282.77475m  700.0000m  306.0019n 
 -282.67475m  700.0000m  305.9472n 
 -282.57475m  700.0000m  305.8926n 
 -282.47475m  700.0000m  305.8380n 
 -282.37475m  700.0000m  305.7835n 
 -282.27475m  700.0000m  305.7291n 
 -282.17475m  700.0000m  305.6748n 
 -282.07475m  700.0000m  305.6205n 
 -281.97475m  700.0000m  305.5663n 
 -281.87475m  700.0000m  305.5122n 
 -281.77475m  700.0000m  305.4582n 
 -281.67475m  700.0000m  305.4042n 
 -281.57475m  700.0000m  305.3503n 
 -281.47475m  700.0000m  305.2965n 
 -281.37475m  700.0000m  305.2427n 
 -281.27475m  700.0000m  305.1891n 
 -281.17475m  700.0000m  305.1355n 
 -281.07475m  700.0000m  305.0819n 
 -280.97475m  700.0000m  305.0285n 
 -280.87475m  700.0000m  304.9751n 
 -280.77475m  700.0000m  304.9218n 
 -280.67475m  700.0000m  304.8686n 
 -280.57475m  700.0000m  304.8154n 
 -280.47475m  700.0000m  304.7624n 
 -280.37475m  700.0000m  304.7094n 
 -280.27475m  700.0000m  304.6564n 
 -280.17475m  700.0000m  304.6036n 
 -280.07475m  700.0000m  304.5508n 
 -279.97475m  700.0000m  304.4981n 
 -279.87475m  700.0000m  304.4455n 
 -279.77475m  700.0000m  304.3929n 
 -279.67475m  700.0000m  304.3404n 
 -279.57475m  700.0000m  304.2880n 
 -279.47475m  700.0000m  304.2357n 
 -279.37475m  700.0000m  304.1834n 
 -279.27475m  700.0000m  304.1312n 
 -279.17475m  700.0000m  304.0791n 
 -279.07475m  700.0000m  304.0271n 
 -278.97475m  700.0000m  303.9751n 
 -278.87475m  700.0000m  303.9232n 
 -278.77475m  700.0000m  303.8714n 
 -278.67475m  700.0000m  303.8196n 
 -278.57475m  700.0000m  303.7680n 
 -278.47475m  700.0000m  303.7164n 
 -278.37475m  700.0000m  303.6648n 
 -278.27475m  700.0000m  303.6134n 
 -278.17475m  700.0000m  303.5620n 
 -278.07475m  700.0000m  303.5107n 
 -277.97475m  700.0000m  303.4595n 
 -277.87475m  700.0000m  303.4083n 
 -277.77475m  700.0000m  303.3572n 
 -277.67475m  700.0000m  303.3062n 
 -277.57475m  700.0000m  303.2553n 
 -277.47475m  700.0000m  303.2044n 
 -277.37475m  700.0000m  303.1536n 
 -277.27475m  700.0000m  303.1029n 
 -277.17475m  700.0000m  303.0523n 
 -277.07475m  700.0000m  303.0017n 
 -276.97475m  700.0000m  302.9512n 
 -276.87475m  700.0000m  302.9008n 
 -276.77475m  700.0000m  302.8505n 
 -276.67475m  700.0000m  302.8002n 
[...]
  453.22525m  700.0000m  281.5551n 
  453.32525m  700.0000m  281.5551n 
  453.42525m  700.0000m  281.5551n 
  453.52525m  700.0000m  281.5551n 
  453.62525m  700.0000m  281.5551n 
  453.72525m  700.0000m  281.5551n 
  453.82525m  700.0000m  281.5551n 
  453.92525m  700.0000m  281.5551n 
  454.02525m  700.0000m  281.5551n 
  454.12525m  700.0000m  281.5551n 
  454.22525m  700.0000m  281.5551n 
  454.32525m  700.0000m  281.5551n 
  454.42525m  700.0000m  281.5551n 
  454.52525m  700.0000m  281.5551n 
  454.62525m  700.0000m  281.5551n 
  454.72525m  700.0000m  281.5551n 
  454.82525m  700.0000m  281.5551n 
  454.92525m  700.0000m  281.5551n 
  455.02525m  700.0000m  281.5551n 
  455.12525m  700.0000m  281.5551n 
  455.22525m  700.0000m  281.5551n 
  455.32525m  700.0000m  281.5551n 
  455.42525m  700.0000m  281.5551n 
  455.52525m  700.0000m  281.5551n 
  455.62525m  700.0000m  281.5551n 
  455.72525m  700.0000m  281.5551n 
  455.82525m  700.0000m  281.5551n 
  455.92525m  700.0000m  281.5551n 
  456.02525m  700.0000m  281.5551n 
  456.12525m  700.0000m  281.5551n 
  456.22525m  700.0000m  281.5551n 
  456.32525m  700.0000m  281.5551n 
  456.42525m  700.0000m  281.5551n 
  456.52525m  700.0000m  281.5551n 
  456.62525m  700.0000m  281.5551n 
  456.72525m  700.0000m  281.5551n 
  456.82525m  700.0000m  281.5551n 
  456.92525m  700.0000m  281.5551n 
  457.02525m  700.0000m  281.5551n 
  457.12525m  700.0000m  281.5551n 
  457.22525m  700.0000m  281.5551n 
  457.32525m  700.0000m  281.5551n 
  457.42525m  700.0000m  281.5551n 
  457.52525m  700.0000m  281.5551n 
  457.62525m  700.0000m  281.5551n 
  457.72525m  700.0000m  281.5551n 
  457.82525m  700.0000m  281.5551n 
  457.92525m  700.0000m  281.5551n 
  458.02525m  700.0000m  281.5551n 
  458.12525m  700.0000m  281.5551n 
  458.22525m  700.0000m  281.5551n 
  458.32525m  700.0000m  281.5551n 
  458.42525m  700.0000m  281.5551n 
  458.52525m  700.0000m  281.5551n 
  458.62525m  700.0000m  281.5551n 
  458.72525m  700.0000m  281.5551n 
  458.82525m  700.0000m  281.5551n 
  458.92525m  700.0000m  281.5551n 
  459.02525m  700.0000m  281.5551n 
  459.12525m  700.0000m  281.5551n 
  459.22525m  700.0000m  281.5551n 
  459.32525m  700.0000m  281.5551n 
  459.42525m  700.0000m  281.5551n 
  459.52525m  700.0000m  281.5551n 
  459.62525m  700.0000m  281.5551n 
  459.72525m  700.0000m  281.5551n 
  459.82525m  700.0000m  281.5551n 
  459.92525m  700.0000m  281.5551n 
  460.02525m  700.0000m  281.5551n 
  460.12525m  700.0000m  281.5551n 
  460.22525m  700.0000m  281.5551n 
  460.32525m  700.0000m  281.5551n 
  460.42525m  700.0000m  281.5551n 
  460.52525m  700.0000m  281.5551n 
  460.62525m  700.0000m  281.5551n 
  460.72525m  700.0000m  281.5551n 
  460.82525m  700.0000m  281.5551n 
  460.92525m  700.0000m  281.5551n 
  461.02525m  700.0000m  281.5551n 
  461.12525m  700.0000m  281.5551n 
  461.22525m  700.0000m  281.5551n 
  461.32525m  700.0000m  281.5551n 
  461.42525m  700.0000m  281.5551n 
  461.52525m  700.0000m  281.5551n 
  461.62525m  700.0000m  281.5551n 
  461.72525m  700.0000m  281.5551n 
  461.82525m  700.0000m  281.5551n 
  461.92525m  700.0000m  281.5551n 
  462.02525m  700.0000m  281.5551n 
  462.12525m  700.0000m  281.5551n 
  462.22525m  700.0000m  281.5551n 
  462.32525m  700.0000m  281.5551n 
  462.42525m  700.0000m  281.5551n 
  462.52525m  700.0000m  281.5551n 
  462.62525m  700.0000m  281.5551n 
  462.72525m  700.0000m  281.5551n 
  462.82525m  700.0000m  281.5551n 
  462.92525m  700.0000m  281.5551n 
  463.02525m  700.0000m  281.5551n 
  463.12525m  700.0000m  281.5551n 
  463.22525m  700.0000m  281.5551n 
  463.32525m  700.0000m  281.5551n 
  463.42525m  700.0000m  281.5551n 
  463.52525m  700.0000m  281.5551n 
  463.62525m  700.0000m  281.5551n 
  463.72525m  700.0000m  281.5551n 
  463.82525m  700.0000m  281.5551n 
  463.92525m  700.0000m  281.5551n 
  464.02525m  700.0000m  281.5551n 
  464.12525m  700.0000m  281.5551n 
  464.22525m  700.0000m  281.5551n 
  464.32525m  700.0000m  281.5551n 
  464.42525m  700.0000m  281.5551n 
  464.52525m  700.0000m  281.5551n 
  464.62525m  700.0000m  281.5551n 
  464.72525m  700.0000m  281.5551n 
  464.82525m  700.0000m  281.5551n 
  464.92525m  700.0000m  281.5551n 
  465.02525m  700.0000m  281.5551n 
  465.12525m  700.0000m  281.5551n 
  465.22525m  700.0000m  281.5551n 
  465.32525m  700.0000m  281.5551n 
  465.42525m  700.0000m  281.5551n 
  465.52525m  700.0000m  281.5551n 
  465.62525m  700.0000m  281.5551n 
  465.72525m  700.0000m  281.5551n 
  465.82525m  700.0000m  281.5551n 
  465.92525m  700.0000m  281.5551n 
  466.02525m  700.0000m  281.5551n 
  466.12525m  700.0000m  281.5551n 
  466.22525m  700.0000m  281.5551n 
  466.32525m  700.0000m  281.5551n 
  466.42525m  700.0000m  281.5551n 
  466.52525m  700.0000m  281.5551n 
  466.62525m  700.0000m  281.5551n 
  466.72525m  700.0000m  281.5551n 
  466.82525m  700.0000m  281.5551n 
  466.92525m  700.0000m  281.5551n 
  467.02525m  700.0000m  281.5551n 
  467.12525m  700.0000m  281.5551n 
  467.22525m  700.0000m  281.5551n 
  467.32525m  700.0000m  281.5551n 
  467.42525m  700.0000m  281.5551n 
  467.52525m  700.0000m  281.5551n 
  467.62525m  700.0000m  281.5551n 
  467.72525m  700.0000m  281.5551n 
  467.82525m  700.0000m  281.5551n 
  467.92525m  700.0000m  281.5551n 
  468.02525m  700.0000m  281.5551n 
  468.12525m  700.0000m  281.5551n 
  468.22525m  700.0000m  281.5551n 
  468.32525m  700.0000m  281.5551n 
  468.42525m  700.0000m  281.5551n 
  468.52525m  700.0000m  281.5551n 
  468.62525m  700.0000m  281.5551n 
  468.72525m  700.0000m  281.5551n 
  468.82525m  700.0000m  281.5551n 
  468.92525m  700.0000m  281.5551n 
  469.02525m  700.0000m  281.5551n 
  469.12525m  700.0000m  281.5551n 
  469.22525m  700.0000m  281.5551n 
  469.32525m  700.0000m  281.5551n 
  469.42525m  700.0000m  281.5551n 
  469.52525m  700.0000m  281.5551n 
  469.62525m  700.0000m  281.5551n 
  469.72525m  700.0000m  281.5551n 
  469.82525m  700.0000m  281.5551n 
  469.92525m  700.0000m  281.5551n 
  470.02525m  700.0000m  281.5551n 
  470.12525m  700.0000m  281.5551n 
  470.22525m  700.0000m  281.5551n 
  470.32525m  700.0000m  281.5551n 
  470.42525m  700.0000m  281.5551n 
  470.52525m  700.0000m  281.5551n 
  470.62525m  700.0000m  281.5551n 
  470.72525m  700.0000m  281.5551n 
  470.82525m  700.0000m  281.5551n 
  470.92525m  700.0000m  281.5551n 
  471.02525m  700.0000m  281.5551n 
  471.12525m  700.0000m  281.5551n 
  471.22525m  700.0000m  281.5551n 
  471.32525m  700.0000m  281.5551n 
  471.42525m  700.0000m  281.5551n 
  471.52525m  700.0000m  281.5551n 
  471.62525m  700.0000m  281.5551n 
  471.72525m  700.0000m  281.5551n 
  471.82525m  700.0000m  281.5551n 
  471.92525m  700.0000m  281.5551n 
  472.02525m  700.0000m  281.5551n 
  472.12525m  700.0000m  281.5551n 
  472.22525m  700.0000m  281.5551n 
  472.32525m  700.0000m  281.5551n 
  472.42525m  700.0000m  281.5551n 
  472.52525m  700.0000m  281.5551n 
  472.62525m  700.0000m  281.5551n 
  472.72525m  700.0000m  281.5551n 
  472.82525m  700.0000m  281.5551n 
  472.92525m  700.0000m  281.5551n 
  473.02525m  700.0000m  281.5551n 
  473.12525m  700.0000m  281.5551n 
  473.22525m  700.0000m  281.5551n 
  473.32525m  700.0000m  281.5551n 
  473.42525m  700.0000m  281.5551n 
  473.52525m  700.0000m  281.5551n 
  473.62525m  700.0000m  281.5551n 
  473.72525m  700.0000m  281.5551n 
  473.82525m  700.0000m  281.5551n 
  473.92525m  700.0000m  281.5551n 
  474.02525m  700.0000m  281.5551n 
  474.12525m  700.0000m  281.5551n 
  474.22525m  700.0000m  281.5551n 
  474.32525m  700.0000m  281.5551n 
  474.42525m  700.0000m  281.5551n 
  474.52525m  700.0000m  281.5551n 
  474.62525m  700.0000m  281.5551n 
  474.72525m  700.0000m  281.5551n 
  474.82525m  700.0000m  281.5551n 
  474.92525m  700.0000m  281.5551n 
  475.02525m  700.0000m  281.5551n 
  475.12525m  700.0000m  281.5551n 
  475.22525m  700.0000m  281.5551n 
  475.32525m  700.0000m  281.5551n 
  475.42525m  700.0000m  281.5551n 
  475.52525m  700.0000m  281.5551n 
  475.62525m  700.0000m  281.5551n 
  475.72525m  700.0000m  281.5551n 
  475.82525m  700.0000m  281.5551n 
  475.92525m  700.0000m  281.5551n 
  476.02525m  700.0000m  281.5551n 
  476.12525m  700.0000m  281.5551n 
  476.22525m  700.0000m  281.5551n 
  476.32525m  700.0000m  281.5551n 
  476.42525m  700.0000m  281.5551n 
  476.52525m  700.0000m  281.5551n 
  476.62525m  700.0000m  281.5551n 
  476.72525m  700.0000m  281.5551n 
  476.82525m  700.0000m  281.5551n 
  476.92525m  700.0000m  281.5551n 
  477.02525m  700.0000m  281.5551n 
  477.12525m  700.0000m  281.5551n 
  477.22525m  700.0000m  281.5551n 
  477.32525m  700.0000m  281.5551n 
  477.42525m  700.0000m  281.5551n 
  477.52525m  700.0000m  281.5551n 
  477.62525m  700.0000m  281.5551n 
  477.72525m  700.0000m  281.5551n 
  477.82525m  700.0000m  281.5551n 
  477.92525m  700.0000m  281.5551n 
  478.02525m  700.0000m  281.5551n 
  478.12525m  700.0000m  281.5551n 
  478.22525m  700.0000m  281.5551n 
  478.32525m  700.0000m  281.5551n 
  478.42525m  700.0000m  281.5551n 
  478.52525m  700.0000m  281.5551n 
  478.62525m  700.0000m  281.5551n 
  478.72525m  700.0000m  281.5551n 
  478.82525m  700.0000m  281.5551n 
  478.92525m  700.0000m  281.5551n 
  479.02525m  700.0000m  281.5551n 
  479.12525m  700.0000m  281.5551n 
  479.22525m  700.0000m  281.5551n 
  479.32525m  700.0000m  281.5551n 
  479.42525m  700.0000m  281.5551n 
  479.52525m  700.0000m  281.5552n 
  479.62525m  700.0000m  281.5552n 
  479.72525m  700.0000m  281.5552n 
  479.82525m  700.0000m  281.5552n 
  479.92525m  700.0000m  281.5552n 
  480.02525m  700.0000m  281.5552n 
  480.12525m  700.0000m  281.5552n 
  480.22525m  700.0000m  281.5552n 
  480.32525m  700.0000m  281.5552n 
  480.42525m  700.0000m  281.5552n 
  480.52525m  700.0000m  281.5552n 
  480.62525m  700.0000m  281.5552n 
  480.72525m  700.0000m  281.5552n 
  480.82525m  700.0000m  281.5552n 
  480.92525m  700.0000m  281.5552n 
  481.02525m  700.0000m  281.5552n 
  481.12525m  700.0000m  281.5552n 
  481.22525m  700.0000m  281.5552n 
  481.32525m  700.0000m  281.5552n 
  481.42525m  700.0000m  281.5552n 
  481.52525m  700.0000m  281.5552n 
  481.62525m  700.0000m  281.5552n 
  481.72525m  700.0000m  281.5552n 
  481.82525m  700.0000m  281.5552n 
  481.92525m  700.0000m  281.5552n 
  482.02525m  700.0000m  281.5552n 
  482.12525m  700.0000m  281.5552n 
  482.22525m  700.0000m  281.5552n 
  482.32525m  700.0000m  281.5552n 
  482.42525m  700.0000m  281.5552n 
  482.52525m  700.0000m  281.5552n 
  482.62525m  700.0000m  281.5552n 
  482.72525m  700.0000m  281.5552n 
  482.82525m  700.0000m  281.5552n 
  482.92525m  700.0000m  281.5552n 
  483.02525m  700.0000m  281.5552n 
  483.12525m  700.0000m  281.5552n 
  483.22525m  700.0000m  281.5552n 
  483.32525m  700.0000m  281.5552n 
  483.42525m  700.0000m  281.5552n 
  483.52525m  700.0000m  281.5552n 
  483.62525m  700.0000m  281.5552n 
  483.72525m  700.0000m  281.5552n 
  483.82525m  700.0000m  281.5552n 
  483.92525m  700.0000m  281.5552n 
  484.02525m  700.0000m  281.5552n 
  484.12525m  700.0000m  281.5552n 
  484.22525m  700.0000m  281.5552n 
  484.32525m  700.0000m  281.5552n 
  484.42525m  700.0000m  281.5552n 
  484.52525m  700.0000m  281.5552n 
  484.62525m  700.0000m  281.5552n 
  484.72525m  700.0000m  281.5552n 
  484.82525m  700.0000m  281.5552n 
  484.92525m  700.0000m  281.5552n 
  485.02525m  700.0000m  281.5552n 
  485.12525m  700.0000m  281.5552n 
  485.22525m  700.0000m  281.5552n 
  485.32525m  700.0000m  281.5552n 
  485.42525m  700.0000m  281.5552n 
  485.52525m  700.0000m  281.5552n 
  485.62525m  700.0000m  281.5552n 
  485.72525m  700.0000m  281.5552n 
  485.82525m  700.0000m  281.5552n 
  485.92525m  700.0000m  281.5552n 
  486.02525m  700.0000m  281.5552n 
  486.12525m  700.0000m  281.5552n 
  486.22525m  700.0000m  281.5552n 
  486.32525m  700.0000m  281.5552n 
  486.42525m  700.0000m  281.5552n 
  486.52525m  700.0000m  281.5552n 
  486.62525m  700.0000m  281.5552n 
  486.72525m  700.0000m  281.5552n 
  486.82525m  700.0000m  281.5552n 
  486.92525m  700.0000m  281.5552n 
  487.02525m  700.0000m  281.5552n 
  487.12525m  700.0000m  281.5552n 
  487.22525m  700.0000m  281.5552n 
  487.32525m  700.0000m  281.5552n 
  487.42525m  700.0000m  281.5552n 
  487.52525m  700.0000m  281.5552n 
  487.62525m  700.0000m  281.5552n 
  487.72525m  700.0000m  281.5552n 
  487.82525m  700.0000m  281.5552n 
  487.92525m  700.0000m  281.5552n 
  488.02525m  700.0000m  281.5552n 
  488.12525m  700.0000m  281.5552n 
  488.22525m  700.0000m  281.5552n 
  488.32525m  700.0000m  281.5552n 
  488.42525m  700.0000m  281.5552n 
  488.52525m  700.0000m  281.5552n 
  488.62525m  700.0000m  281.5552n 
  488.72525m  700.0000m  281.5552n 
  488.82525m  700.0000m  281.5552n 
  488.92525m  700.0000m  281.5552n 
  489.02525m  700.0000m  281.5552n 
  489.12525m  700.0000m  281.5552n 
  489.22525m  700.0000m  281.5552n 
  489.32525m  700.0000m  281.5552n 
  489.42525m  700.0000m  281.5552n 
  489.52525m  700.0000m  281.5552n 
  489.62525m  700.0000m  281.5552n 
  489.72525m  700.0000m  281.5552n 
  489.82525m  700.0000m  281.5552n 
  489.92525m  700.0000m  281.5552n 
  490.02525m  700.0000m  281.5552n 
  490.12525m  700.0000m  281.5552n 
  490.22525m  700.0000m  281.5552n 
  490.32525m  700.0000m  281.5552n 
  490.42525m  700.0000m  281.5552n 
  490.52525m  700.0000m  281.5552n 
  490.62525m  700.0000m  281.5552n 
  490.72525m  700.0000m  281.5552n 
  490.82525m  700.0000m  281.5552n 
  490.92525m  700.0000m  281.5552n 
  491.02525m  700.0000m  281.5552n 
  491.12525m  700.0000m  281.5552n 
  491.22525m  700.0000m  281.5552n 
  491.32525m  700.0000m  281.5552n 
  491.42525m  700.0000m  281.5552n 
  491.52525m  700.0000m  281.5552n 
  491.62525m  700.0000m  281.5552n 
  491.72525m  700.0000m  281.5552n 
  491.82525m  700.0000m  281.5552n 
  491.92525m  700.0000m  281.5552n 
  492.02525m  700.0000m  281.5552n 
  492.12525m  700.0000m  281.5552n 
  492.22525m  700.0000m  281.5552n 
  492.32525m  700.0000m  281.5552n 
  492.42525m  700.0000m  281.5552n 
  492.52525m  700.0000m  281.5552n 
  492.62525m  700.0000m  281.5552n 
  492.72525m  700.0000m  281.5552n 
  492.82525m  700.0000m  281.5552n 
  492.92525m  700.0000m  281.5552n 
  493.02525m  700.0000m  281.5552n 
  493.12525m  700.0000m  281.5552n 
  493.22525m  700.0000m  281.5552n 
  493.32525m  700.0000m  281.5552n 
  493.42525m  700.0000m  281.5552n 
  493.52525m  700.0000m  281.5552n 
  493.62525m  700.0000m  281.5552n 
  493.72525m  700.0000m  281.5552n 
  493.82525m  700.0000m  281.5552n 
  493.92525m  700.0000m  281.5552n 
  494.02525m  700.0000m  281.5552n 
  494.12525m  700.0000m  281.5552n 
  494.22525m  700.0000m  281.5552n 
  494.32525m  700.0000m  281.5552n 
  494.42525m  700.0000m  281.5552n 
  494.52525m  700.0000m  281.5552n 
  494.62525m  700.0000m  281.5552n 
  494.72525m  700.0000m  281.5552n 
  494.82525m  700.0000m  281.5552n 
  494.92525m  700.0000m  281.5552n 
y
1****** HSPICE -- Q-2020.03-SP2-2 linux64 (Nov  1 2020) ******                  
 ******  
 .title ex1_1

 ****** operating point information tnom=  25.000 temp=  25.000 ******
 ****** operating point status is all       simulation time is     0.     
    node    =voltage      node    =voltage      node    =voltage

 +0:bl      = 700.0000m 0:blb     = 699.9997m 0:gl      = 281.5550n
 +0:gr      = 700.0000m 0:q       = 700.0000m 0:qb      = 281.5550n
 +0:u       =   0.      0:v1      = 989.9495m 0:v2      = 398.1788n
 +0:vdd     = 700.0000m 0:wl      = 700.0000m


 **** voltage sources

 subckt                                   
 element  0:vu       0:vvdd     0:vwl     
  volts      0.       700.0000m  700.0000m
  current    0.        -3.8803p -254.4471f
  power      0.         2.7162p  178.1130f

     total voltage source power dissipation=    2.8943p       watts



 **** voltage-controlled voltage sources


 subckt                                              
 element  0:eli      0:eri      0:ev1      0:ev2     
  volts    700.0000m  281.5550n  989.9495m  398.1788n
  current -599.8832f  259.9372f    0.         0.     





 **** mosfets


 subckt                                                                    
 element  0:mp_pu1   0:mp_pu2   0:mn_pd1   0:mn_pd2   0:mn_ax1   0:mn_ax2  
 model    0:pmos_sra 0:pmos_sra 0:nmos_sra 0:nmos_sra 0:nmos_sra 0:nmos_sra
 region   Linear     Subth      Cutoff     Linear     Cutoff     Saturation
  id        -5.8028a   -3.8124p  678.4965f   42.7033p -5.412e-21   28.1555u
  ibs        0.         0.         0.         0.         0.         0.     
  ibd        0.         0.         0.         0.         0.         0.     
  vgs     -699.9997m  -51.9584f  281.5550n  700.0000m   51.8474f  699.9997m
  vds      -51.8474f -699.9997m  700.0000m  281.5550n   50.2931f  699.9994m
  vbs        0.         0.         0.         0.      -700.0000m -281.5550n
  vth     -339.1310m -328.3087m  406.6380m  410.1164m  410.1164m  406.6380m
  vdsat   -365.6432m  -72.7965m   70.6690m  280.7545m   70.6690m  283.4962m
  vod     -360.8687m  328.3087m -406.6377m  289.8836m -410.1164m  293.3617m
  beta       1.6413m    1.6413m    2.1736m    2.1736m    2.1736m    2.1736m
  gam eff    0.         0.         0.         0.         0.         0.     
  gm        10.8849a  147.4372p   25.5583p   66.2383p -7.664e-26  107.9606u
  gds      111.8328u    3.6592p  516.9759f  151.6693u   14.9554p    4.5229u
  gmb      1.073e-23   42.6094a    7.3862a   96.3826a -4.366e-26   94.2619p
  cdtot     25.3299a   10.2225a   10.2225a   24.7315a   10.2225a   10.5415a
  cgtot     65.7671a   20.4452a   20.4450a   63.9719a   20.4450a   52.3853a
  cstot     25.3299a   10.2226a   10.2225a   24.7315a   10.2225a   28.9434a
  cbtot      0.         0.         0.         0.         0.         0.     
  cgs       32.8836a   10.2227a   10.2225a   31.9859a   10.2225a   41.7726a
  cgd       32.8836a   10.2225a   10.2225a   31.9859a   10.2225a   10.6128a




          ***** job concluded
 ******  
 .title ex1_1

 ****** job statistics summary tnom=  25.000 temp=  25.000 ******
  
 ******  Machine Information  ******
 CPU:
 model name	: AMD EPYC 7713 64-Core Processor
 cpu MHz	: 2000.000
  
 OS:
 Linux version 3.10.0-1160.88.1.el7.x86_64 (mockbuild@kbuilder.bsys.centos.org) (gcc version 4.8.5 20150623 (Red Hat 4.8.5-44) (GCC) ) #1 SMP Tue Mar 7 15:41:52 UTC 2023


  ******  HSPICE Threads Information  ******

  Command Line Threads Count :     1
  Available CPU Count        :   256
  Actual Threads Count       :     1


  ******  Circuit Statistics  ******
  # nodes       =      12 # elements   =      15
  # resistors   =       0 # capacitors =       2 # inductors   =       0
  # mutual_inds =       0 # vccs       =       0 # vcvs        =       4
  # cccs        =       0 # ccvs       =       0 # volt_srcs   =       3
  # curr_srcs   =       0 # diodes     =       0 # bjts        =       0
  # jfets       =       0 # mosfets    =       6 # U elements  =       0
  # T elements  =       0 # W elements =       0 # B elements  =       0
  # S elements  =       0 # P elements =       0 # va device   =       0
  # vector_srcs =       0 # N elements =       0


  ******  Runtime Statistics (seconds)  ******

  analysis           time    # points   tot. iter  conv.iter
  op point           0.01           1           4
  dc sweep           0.74        9900       29701
  readin             0.02
  errchk             0.00
  setup              0.00
  output             0.00


           peak memory used        398.12 megabytes
           total cpu time            0.80 seconds
           total elapsed time        1.65 seconds
           job started at     23:42:16 03/18/2025
           job ended   at     23:42:17 03/18/2025
           job total runtime         1.65 seconds


 lic: Release hspice token(s) 
 lic: total license checkout elapse time:        0.84(s)
