 ****** HSPICE -- Q-2020.03-SP2-2 linux64 (Nov  1 2020) ******                  
  Copyright (c) 1986 - 2025 by Synopsys, Inc. All Rights Reserved.              
  This software and the associated documentation are proprietary
  to Synopsys, Inc. This software may only be used in accordance
  with the terms and conditions of a written license agreement with
  Synopsys, Inc. All other use, reproduction, or distribution of
  this software is strictly prohibited.
  Input File: ex1_1.sp                                                          
  Command line options: /RAID2/cad/synopsys/hspice/2020.03-sp2-2/hspice/linux64/hspice -i ex1_1.sp -o ex1_1.lis
  Start time: Tue Mar 18 23:02:12 2025
 lic:  
 lic: FLEXlm: SDK_12.6 
 lic: USER:   es25MCS042           HOSTNAME: ee28 
 lic: HOSTID: "d85ed3efc19a"       PID:      55384 
 lic: Using FLEXlm license file: 
 lic: 26585@lshc 
 lic: Checkout 1 hspice 
 lic: License/Maintenance for hspice will expire on 14-may-2025/2024.09 
 lic: 208(in_use)/1100(total) FLOATING license(s) on SERVER 26585@lshc 
 lic:   
  
      
 *****************************************************************
 ******  option summary
 ******
 runlvl  = 3         bypass  = 2.0000    
 ** Warning ** Convergence problem in the first dc sweep value, Pseudo tran is tried.
  *** pseudo tran succeeded *** 
 convergence problems in dc sweep curves at  0.21593    
  resimulating with dc convergence controls

 convergence problem in dc sweep curve at 0.21593    
 pseudo tran is tried

  *** pseudo tran succeeded *** 
 ******
 .title ex1_1

 ****** dc transfer curves tnom=  25.000 temp=  25.000 ******
x

 volt         voltage    voltage   
             q          qb         
 -494.97475m  207.3434n  699.9999m 
 -494.87475m  207.2388n  699.9999m 
 -494.77475m  207.1342n  699.9999m 
 -494.67475m  207.0297n  699.9999m 
 -494.57475m  206.9253n  699.9999m 
 -494.47475m  206.8209n  699.9999m 
 -494.37475m  206.7166n  699.9999m 
 -494.27475m  206.6123n  699.9999m 
 -494.17475m  206.5082n  699.9999m 
 -494.07475m  206.4041n  699.9999m 
 -493.97475m  206.3000n  699.9999m 
 -493.87475m  206.1960n  699.9999m 
 -493.77475m  206.0921n  699.9999m 
 -493.67475m  205.9882n  699.9999m 
 -493.57475m  205.8845n  699.9999m 
 -493.47475m  205.7807n  699.9999m 
 -493.37475m  205.6771n  699.9999m 
 -493.27475m  205.5735n  699.9999m 
 -493.17475m  205.4699n  699.9999m 
 -493.07475m  205.3665n  699.9999m 
 -492.97475m  205.2631n  699.9999m 
 -492.87475m  205.1597n  699.9999m 
 -492.77475m  205.0564n  699.9999m 
 -492.67475m  204.9532n  699.9999m 
 -492.57475m  204.8501n  699.9999m 
 -492.47475m  204.7470n  699.9999m 
 -492.37475m  204.6440n  699.9999m 
 -492.27475m  204.5410n  699.9999m 
 -492.17475m  204.4381n  699.9999m 
 -492.07475m  204.3353n  699.9999m 
 -491.97475m  204.2325n  699.9999m 
 -491.87475m  204.1298n  699.9999m 
 -491.77475m  204.0272n  699.9999m 
 -491.67475m  203.9246n  699.9999m 
 -491.57475m  203.8221n  699.9999m 
 -491.47475m  203.7196n  699.9999m 
 -491.37475m  203.6172n  699.9999m 
 -491.27475m  203.5149n  699.9999m 
 -491.17475m  203.4126n  699.9999m 
 -491.07475m  203.3104n  699.9999m 
 -490.97475m  203.2083n  699.9999m 
 -490.87475m  203.1062n  699.9999m 
 -490.77475m  203.0042n  699.9999m 
 -490.67475m  202.9023n  699.9999m 
 -490.57475m  202.8004n  699.9999m 
 -490.47475m  202.6985n  699.9999m 
 -490.37475m  202.5968n  699.9999m 
 -490.27475m  202.4951n  699.9999m 
 -490.17475m  202.3934n  699.9999m 
 -490.07475m  202.2919n  699.9999m 
 -489.97475m  202.1904n  699.9999m 
 -489.87475m  202.0889n  699.9999m 
 -489.77475m  201.9875n  699.9999m 
 -489.67475m  201.8862n  699.9999m 
 -489.57475m  201.7849n  699.9999m 
 -489.47475m  201.6837n  699.9999m 
 -489.37475m  201.5826n  699.9999m 
 -489.27475m  201.4815n  699.9999m 
 -489.17475m  201.3805n  699.9999m 
 -489.07475m  201.2795n  699.9999m 
 -488.97475m  201.1786n  699.9999m 
 -488.87475m  201.0778n  699.9999m 
 -488.77475m  200.9770n  699.9999m 
 -488.67475m  200.8763n  699.9999m 
 -488.57475m  200.7757n  699.9999m 
 -488.47475m  200.6751n  699.9999m 
 -488.37475m  200.5745n  699.9999m 
 -488.27475m  200.4741n  699.9999m 
 -488.17475m  200.3737n  699.9999m 
 -488.07475m  200.2733n  699.9999m 
 -487.97475m  200.1731n  699.9999m 
 -487.87475m  200.0728n  699.9999m 
 -487.77475m  199.9727n  699.9999m 
 -487.67475m  199.8726n  699.9999m 
 -487.57475m  199.7725n  699.9999m 
 -487.47475m  199.6726n  699.9999m 
 -487.37475m  199.5726n  699.9999m 
 -487.27475m  199.4728n  699.9999m 
 -487.17475m  199.3730n  699.9999m 
 -487.07475m  199.2733n  699.9999m 
 -486.97475m  199.1736n  699.9999m 
 -486.87475m  199.0740n  699.9999m 
 -486.77475m  198.9744n  699.9999m 
 -486.67475m  198.8749n  699.9999m 
 -486.57475m  198.7755n  699.9999m 
 -486.47475m  198.6761n  699.9999m 
 -486.37475m  198.5768n  699.9999m 
 -486.27475m  198.4775n  699.9999m 
 -486.17475m  198.3783n  699.9999m 
 -486.07475m  198.2792n  699.9999m 
 -485.97475m  198.1801n  699.9999m 
 -485.87475m  198.0811n  699.9999m 
 -485.77475m  197.9822n  699.9999m 
 -485.67475m  197.8833n  699.9999m 
 -485.57475m  197.7844n  699.9999m 
 -485.47475m  197.6857n  699.9999m 
 -485.37475m  197.5870n  699.9999m 
 -485.27475m  197.4883n  699.9999m 
 -485.17475m  197.3897n  699.9999m 
 -485.07475m  197.2912n  699.9999m 
 -484.97475m  197.1927n  699.9999m 
 -484.87475m  197.0943n  699.9999m 
 -484.77475m  196.9959n  699.9999m 
 -484.67475m  196.8976n  699.9999m 
 -484.57475m  196.7994n  699.9999m 
 -484.47475m  196.7012n  699.9999m 
 -484.37475m  196.6031n  699.9999m 
 -484.27475m  196.5050n  699.9999m 
 -484.17475m  196.4070n  699.9999m 
 -484.07475m  196.3090n  699.9999m 
 -483.97475m  196.2112n  699.9999m 
 -483.87475m  196.1133n  699.9999m 
 -483.77475m  196.0156n  699.9999m 
 -483.67475m  195.9178n  699.9999m 
 -483.57475m  195.8202n  699.9999m 
 -483.47475m  195.7226n  699.9999m 
 -483.37475m  195.6251n  699.9999m 
 -483.27475m  195.5276n  699.9999m 
 -483.17475m  195.4302n  699.9999m 
 -483.07475m  195.3328n  699.9999m 
 -482.97475m  195.2355n  699.9999m 
 -482.87475m  195.1382n  699.9999m 
 -482.77475m  195.0411n  699.9999m 
 -482.67475m  194.9439n  699.9999m 
 -482.57475m  194.8469n  699.9999m 
 -482.47475m  194.7498n  699.9999m 
 -482.37475m  194.6529n  699.9999m 
 -482.27475m  194.5560n  699.9999m 
 -482.17475m  194.4592n  699.9999m 
 -482.07475m  194.3624n  699.9999m 
 -481.97475m  194.2656n  699.9999m 
 -481.87475m  194.1690n  699.9999m 
 -481.77475m  194.0724n  699.9999m 
 -481.67475m  193.9758n  699.9999m 
 -481.57475m  193.8793n  699.9999m 
 -481.47475m  193.7829n  699.9999m 
 -481.37475m  193.6865n  699.9999m 
 -481.27475m  193.5902n  699.9999m 
 -481.17475m  193.4939n  699.9999m 
 -481.07475m  193.3977n  699.9999m 
 -480.97475m  193.3016n  699.9999m 
 -480.87475m  193.2055n  699.9999m 
 -480.77475m  193.1094n  699.9999m 
 -480.67475m  193.0135n  699.9999m 
 -480.57475m  192.9175n  699.9999m 
 -480.47475m  192.8217n  699.9999m 
 -480.37475m  192.7259n  699.9999m 
 -480.27475m  192.6301n  699.9999m 
 -480.17475m  192.5344n  699.9999m 
 -480.07475m  192.4388n  699.9999m 
 -479.97475m  192.3432n  699.9999m 
 -479.87475m  192.2477n  699.9999m 
 -479.77475m  192.1522n  699.9999m 
 -479.67475m  192.0568n  699.9999m 
 -479.57475m  191.9614n  699.9999m 
 -479.47475m  191.8661n  699.9999m 
 -479.37475m  191.7709n  699.9999m 
 -479.27475m  191.6757n  699.9999m 
 -479.17475m  191.5805n  699.9999m 
 -479.07475m  191.4855n  699.9999m 
 -478.97475m  191.3905n  699.9999m 
 -478.87475m  191.2955n  699.9999m 
 -478.77475m  191.2006n  699.9999m 
 -478.67475m  191.1057n  699.9999m 
 -478.57475m  191.0109n  699.9999m 
 -478.47475m  190.9162n  699.9999m 
 -478.37475m  190.8215n  699.9999m 
 -478.27475m  190.7269n  699.9999m 
 -478.17475m  190.6323n  699.9999m 
 -478.07475m  190.5378n  699.9999m 
 -477.97475m  190.4433n  699.9999m 
 -477.87475m  190.3489n  699.9999m 
 -477.77475m  190.2546n  699.9999m 
 -477.67475m  190.1603n  699.9999m 
 -477.57475m  190.0660n  699.9999m 
 -477.47475m  189.9718n  699.9999m 
 -477.37475m  189.8777n  699.9999m 
 -477.27475m  189.7836n  699.9999m 
 -477.17475m  189.6896n  699.9999m 
 -477.07475m  189.5956n  699.9999m 
 -476.97475m  189.5017n  699.9999m 
 -476.87475m  189.4079n  699.9999m 
 -476.77475m  189.3141n  699.9999m 
 -476.67475m  189.2203n  699.9999m 
 -476.57475m  189.1266n  699.9999m 
 -476.47475m  189.0330n  699.9999m 
 -476.37475m  188.9394n  699.9999m 
 -476.27475m  188.8459n  699.9999m 
 -476.17475m  188.7524n  699.9999m 
 -476.07475m  188.6590n  699.9999m 
 -475.97475m  188.5656n  699.9999m 
 -475.87475m  188.4723n  699.9999m 
 -475.77475m  188.3791n  699.9999m 
 -475.67475m  188.2859n  699.9999m 
 -475.57475m  188.1927n  699.9999m 
 -475.47475m  188.0996n  699.9999m 
 -475.37475m  188.0066n  699.9999m 
 -475.27475m  187.9136n  699.9999m 
 -475.17475m  187.8207n  699.9999m 
 -475.07475m  187.7278n  699.9999m 
 -474.97475m  187.6350n  699.9999m 
 -474.87475m  187.5422n  699.9999m 
 -474.77475m  187.4495n  699.9999m 
 -474.67475m  187.3569n  699.9999m 
 -474.57475m  187.2643n  699.9999m 
 -474.47475m  187.1717n  699.9999m 
 -474.37475m  187.0792n  699.9999m 
 -474.27475m  186.9868n  699.9999m 
 -474.17475m  186.8944n  699.9999m 
 -474.07475m  186.8020n  699.9999m 
 -473.97475m  186.7097n  699.9999m 
 -473.87475m  186.6175n  699.9999m 
 -473.77475m  186.5253n  699.9999m 
 -473.67475m  186.4332n  699.9999m 
 -473.57475m  186.3411n  699.9999m 
 -473.47475m  186.2491n  699.9999m 
 -473.37475m  186.1572n  699.9999m 
 -473.27475m  186.0652n  699.9999m 
 -473.17475m  185.9734n  699.9999m 
 -473.07475m  185.8816n  699.9999m 
 -472.97475m  185.7898n  699.9999m 
 -472.87475m  185.6981n  699.9999m 
 -472.77475m  185.6065n  699.9999m 
 -472.67475m  185.5149n  699.9999m 
 -472.57475m  185.4233n  699.9999m 
 -472.47475m  185.3319n  699.9999m 
 -472.37475m  185.2404n  699.9999m 
 -472.27475m  185.1490n  699.9999m 
 -472.17475m  185.0577n  699.9999m 
 -472.07475m  184.9664n  699.9999m 
 -471.97475m  184.8752n  699.9999m 
 -471.87475m  184.7840n  699.9999m 
 -471.77475m  184.6929n  699.9999m 
 -471.67475m  184.6018n  699.9999m 
 -471.57475m  184.5108n  699.9999m 
 -471.47475m  184.4199n  699.9999m 
 -471.37475m  184.3289n  699.9999m 
 -471.27475m  184.2381n  699.9999m 
 -471.17475m  184.1473n  699.9999m 
 -471.07475m  184.0565n  699.9999m 
 -470.97475m  183.9658n  699.9999m 
 -470.87475m  183.8752n  699.9999m 
 -470.77475m  183.7846n  699.9999m 
 -470.67475m  183.6940n  699.9999m 
 -470.57475m  183.6035n  699.9999m 
 -470.47475m  183.5131n  699.9999m 
 -470.37475m  183.4227n  699.9999m 
 -470.27475m  183.3323n  699.9999m 
 -470.17475m  183.2420n  699.9999m 
 -470.07475m  183.1518n  699.9999m 
 -469.97475m  183.0616n  699.9999m 
 -469.87475m  182.9715n  699.9999m 
 -469.77475m  182.8814n  699.9999m 
 -469.67475m  182.7914n  699.9999m 
 -469.57475m  182.7014n  699.9999m 
 -469.47475m  182.6115n  699.9999m 
 -469.37475m  182.5216n  699.9999m 
 -469.27475m  182.4318n  699.9999m 
 -469.17475m  182.3420n  699.9999m 
 -469.07475m  182.2522n  699.9999m 
 -468.97475m  182.1626n  699.9999m 
 -468.87475m  182.0729n  699.9999m 
 -468.77475m  181.9834n  699.9999m 
 -468.67475m  181.8939n  699.9999m 
 -468.57475m  181.8044n  699.9999m 
 -468.47475m  181.7150n  699.9999m 
 -468.37475m  181.6256n  699.9999m 
 -468.27475m  181.5363n  699.9999m 
 -468.17475m  181.4470n  699.9999m 
 -468.07475m  181.3578n  699.9999m 
 -467.97475m  181.2686n  699.9999m 
 -467.87475m  181.1795n  699.9999m 
 -467.77475m  181.0904n  699.9999m 
 -467.67475m  181.0014n  699.9999m 
 -467.57475m  180.9125n  699.9999m 
 -467.47475m  180.8235n  699.9999m 
 -467.37475m  180.7347n  699.9999m 
 -467.27475m  180.6459n  699.9999m 
 -467.17475m  180.5571n  699.9999m 
 -467.07475m  180.4684n  699.9999m 
 -466.97475m  180.3797n  699.9999m 
 -466.87475m  180.2911n  699.9999m 
 -466.77475m  180.2025n  699.9999m 
 -466.67475m  180.1140n  699.9999m 
 -466.57475m  180.0256n  699.9999m 
 -466.47475m  179.9371n  699.9999m 
 -466.37475m  179.8488n  699.9999m 
 -466.27475m  179.7605n  699.9999m 
 -466.17475m  179.6722n  699.9999m 
 -466.07475m  179.5840n  699.9999m 
 -465.97475m  179.4958n  699.9999m 
 -465.87475m  179.4077n  699.9999m 
 -465.77475m  179.3196n  699.9999m 
 -465.67475m  179.2316n  699.9999m 
 -465.57475m  179.1436n  699.9999m 
 -465.47475m  179.0557n  699.9999m 
 -465.37475m  178.9678n  699.9999m 
 -465.27475m  178.8800n  699.9999m 
 -465.17475m  178.7923n  699.9999m 
 -465.07475m  178.7045n  699.9999m 
 -464.97475m  178.6169n  699.9999m 
 -464.87475m  178.5292n  699.9999m 
 -464.77475m  178.4417n  699.9999m 
 -464.67475m  178.3541n  699.9999m 
 -464.57475m  178.2667n  699.9999m 
 -464.47475m  178.1792n  699.9999m 
 -464.37475m  178.0918n  699.9999m 
 -464.27475m  178.0045n  699.9999m 
 -464.17475m  177.9172n  699.9999m 
 -464.07475m  177.8300n  699.9999m 
 -463.97475m  177.7428n  699.9999m 
 -463.87475m  177.6557n  699.9999m 
 -463.77475m  177.5686n  699.9999m 
 -463.67475m  177.4816n  699.9999m 
 -463.57475m  177.3946n  699.9999m 
 -463.47475m  177.3076n  699.9999m 
 -463.37475m  177.2207n  699.9999m 
 -463.27475m  177.1339n  699.9999m 
 -463.17475m  177.0471n  699.9999m 
 -463.07475m  176.9603n  699.9999m 
 -462.97475m  176.8736n  699.9999m 
 -462.87475m  176.7870n  699.9999m 
 -462.77475m  176.7004n  699.9999m 
 -462.67475m  176.6138n  699.9999m 
 -462.57475m  176.5273n  699.9999m 
 -462.47475m  176.4409n  699.9999m 
 -462.37475m  176.3544n  699.9999m 
 -462.27475m  176.2681n  699.9999m 
 -462.17475m  176.1818n  699.9999m 
 -462.07475m  176.0955n  699.9999m 
 -461.97475m  176.0093n  699.9999m 
 -461.87475m  175.9231n  699.9999m 
 -461.77475m  175.8370n  699.9999m 
 -461.67475m  175.7509n  699.9999m 
 -461.57475m  175.6649n  699.9999m 
 -461.47475m  175.5789n  699.9999m 
 -461.37475m  175.4929n  699.9999m 
 -461.27475m  175.4071n  699.9999m 
 -461.17475m  175.3212n  699.9999m 
 -461.07475m  175.2354n  699.9999m 
 -460.97475m  175.1497n  699.9999m 
 -460.87475m  175.0640n  699.9999m 
 -460.77475m  174.9783n  699.9999m 
 -460.67475m  174.8927n  699.9999m 
 -460.57475m  174.8072n  699.9999m 
 -460.47475m  174.7217n  699.9999m 
 -460.37475m  174.6362n  699.9999m 
 -460.27475m  174.5508n  699.9999m 
 -460.17475m  174.4654n  699.9999m 
 -460.07475m  174.3801n  699.9999m 
 -459.97475m  174.2948n  699.9999m 
 -459.87475m  174.2096n  699.9999m 
 -459.77475m  174.1244n  699.9999m 
 -459.67475m  174.0393n  699.9999m 
 -459.57475m  173.9542n  699.9999m 
 -459.47475m  173.8691n  699.9999m 
 -459.37475m  173.7841n  699.9999m 
 -459.27475m  173.6992n  699.9999m 
 -459.17475m  173.6143n  699.9999m 
 -459.07475m  173.5294n  699.9999m 
 -458.97475m  173.4446n  699.9999m 
 -458.87475m  173.3599n  699.9999m 
 -458.77475m  173.2752n  699.9999m 
 -458.67475m  173.1905n  699.9999m 
 -458.57475m  173.1059n  699.9999m 
 -458.47475m  173.0213n  699.9999m 
 -458.37475m  172.9368n  699.9999m 
 -458.27475m  172.8523n  699.9999m 
 -458.17475m  172.7678n  699.9999m 
 -458.07475m  172.6834n  699.9999m 
 -457.97475m  172.5991n  699.9999m 
 -457.87475m  172.5148n  699.9999m 
 -457.77475m  172.4305n  699.9999m 
 -457.67475m  172.3463n  699.9999m 
 -457.57475m  172.2622n  699.9999m 
 -457.47475m  172.1780n  699.9999m 
 -457.37475m  172.0940n  699.9999m 
 -457.27475m  172.0100n  699.9999m 
 -457.17475m  171.9260n  699.9999m 
 -457.07475m  171.8420n  699.9999m 
 -456.97475m  171.7581n  699.9999m 
 -456.87475m  171.6743n  699.9999m 
 -456.77475m  171.5905n  699.9999m 
 -456.67475m  171.5068n  699.9999m 
 -456.57475m  171.4231n  699.9999m 
 -456.47475m  171.3394n  699.9999m 
 -456.37475m  171.2558n  699.9999m 
 -456.27475m  171.1722n  699.9999m 
 -456.17475m  171.0887n  699.9999m 
 -456.07475m  171.0052n  699.9999m 
 -455.97475m  170.9218n  699.9999m 
 -455.87475m  170.8384n  699.9999m 
 -455.77475m  170.7550n  699.9999m 
 -455.67475m  170.6717n  699.9999m 
 -455.57475m  170.5885n  699.9999m 
 -455.47475m  170.5053n  699.9999m 
 -455.37475m  170.4221n  699.9999m 
 -455.27475m  170.3390n  699.9999m 
 -455.17475m  170.2559n  699.9999m 
 -455.07475m  170.1729n  699.9999m 
 -454.97475m  170.0899n  699.9999m 
 -454.87475m  170.0069n  699.9999m 
 -454.77475m  169.9240n  699.9999m 
 -454.67475m  169.8412n  699.9999m 
 -454.57475m  169.7584n  699.9999m 
 -454.47475m  169.6756n  699.9999m 
 -454.37475m  169.5929n  699.9999m 
 -454.27475m  169.5102n  699.9999m 
 -454.17475m  169.4276n  699.9999m 
 -454.07475m  169.3450n  699.9999m 
 -453.97475m  169.2625n  699.9999m 
 -453.87475m  169.1800n  699.9999m 
 -453.77475m  169.0975n  699.9999m 
 -453.67475m  169.0151n  699.9999m 
 -453.57475m  168.9328n  699.9999m 
 -453.47475m  168.8504n  699.9999m 
 -453.37475m  168.7682n  699.9999m 
 -453.27475m  168.6859n  699.9999m 
 -453.17475m  168.6037n  699.9999m 
 -453.07475m  168.5216n  699.9999m 
 -452.97475m  168.4395n  699.9999m 
 -452.87475m  168.3575n  699.9999m 
 -452.77475m  168.2754n  699.9999m 
 -452.67475m  168.1935n  699.9999m 
 -452.57475m  168.1115n  699.9999m 
 -452.47475m  168.0297n  699.9999m 
 -452.37475m  167.9478n  699.9999m 
 -452.27475m  167.8660n  699.9999m 
 -452.17475m  167.7843n  699.9999m 
 -452.07475m  167.7026n  699.9999m 
 -451.97475m  167.6209n  699.9999m 
 -451.87475m  167.5393n  699.9999m 
 -451.77475m  167.4577n  699.9999m 
 -451.67475m  167.3762n  699.9999m 
 -451.57475m  167.2947n  699.9999m 
 -451.47475m  167.2133n  699.9999m 
 -451.37475m  167.1319n  699.9999m 
 -451.27475m  167.0505n  699.9999m 
 -451.17475m  166.9692n  699.9999m 
 -451.07475m  166.8879n  699.9999m 
 -450.97475m  166.8067n  699.9999m 
 -450.87475m  166.7255n  699.9999m 
 -450.77475m  166.6444n  699.9999m 
 -450.67475m  166.5633n  699.9999m 
 -450.57475m  166.4822n  699.9999m 
 -450.47475m  166.4012n  699.9999m 
 -450.37475m  166.3202n  699.9999m 
 -450.27475m  166.2393n  699.9999m 
 -450.17475m  166.1584n  699.9999m 
 -450.07475m  166.0776n  699.9999m 
 -449.97475m  165.9968n  699.9999m 
 -449.87475m  165.9160n  699.9999m 
 -449.77475m  165.8353n  699.9999m 
 -449.67475m  165.7546n  699.9999m 
 -449.57475m  165.6740n  699.9999m 
 -449.47475m  165.5934n  699.9999m 
 -449.37475m  165.5128n  699.9999m 
 -449.27475m  165.4323n  699.9999m 
 -449.17475m  165.3519n  699.9999m 
 -449.07475m  165.2715n  699.9999m 
 -448.97475m  165.1911n  699.9999m 
 -448.87475m  165.1108n  699.9999m 
 -448.77475m  165.0305n  699.9999m 
 -448.67475m  164.9502n  699.9999m 
 -448.57475m  164.8700n  699.9999m 
 -448.47475m  164.7898n  699.9999m 
 -448.37475m  164.7097n  699.9999m 
 -448.27475m  164.6296n  699.9999m 
 -448.17475m  164.5496n  699.9999m 
 -448.07475m  164.4696n  699.9999m 
 -447.97475m  164.3897n  699.9999m 
 -447.87475m  164.3097n  699.9999m 
 -447.77475m  164.2299n  699.9999m 
 -447.67475m  164.1500n  699.9999m 
 -447.57475m  164.0703n  699.9999m 
 -447.47475m  163.9905n  699.9999m 
 -447.37475m  163.9108n  699.9999m 
 -447.27475m  163.8311n  699.9999m 
 -447.17475m  163.7515n  699.9999m 
 -447.07475m  163.6719n  699.9999m 
 -446.97475m  163.5924n  699.9999m 
 -446.87475m  163.5129n  699.9999m 
 -446.77475m  163.4335n  699.9999m 
 -446.67475m  163.3540n  699.9999m 
 -446.57475m  163.2747n  699.9999m 
 -446.47475m  163.1953n  699.9999m 
 -446.37475m  163.1161n  699.9999m 
 -446.27475m  163.0368n  699.9999m 
 -446.17475m  162.9576n  699.9999m 
 -446.07475m  162.8784n  699.9999m 
 -445.97475m  162.7993n  699.9999m 
 -445.87475m  162.7202n  699.9999m 
 -445.77475m  162.6412n  699.9999m 
 -445.67475m  162.5622n  699.9999m 
 -445.57475m  162.4832n  699.9999m 
 -445.47475m  162.4043n  699.9999m 
 -445.37475m  162.3254n  699.9999m 
 -445.27475m  162.2466n  699.9999m 
 -445.17475m  162.1678n  699.9999m 
 -445.07475m  162.0891n  699.9999m 
 -444.97475m  162.0103n  699.9999m 
 -444.87475m  161.9317n  699.9999m 
 -444.77475m  161.8530n  699.9999m 
 -444.67475m  161.7744n  699.9999m 
 -444.57475m  161.6959n  699.9999m 
 -444.47475m  161.6174n  699.9999m 
 -444.37475m  161.5389n  699.9999m 
 -444.27475m  161.4605n  699.9999m 
 -444.17475m  161.3821n  699.9999m 
 -444.07475m  161.3037n  699.9999m 
 -443.97475m  161.2254n  699.9999m 
 -443.87475m  161.1472n  699.9999m 
 -443.77475m  161.0689n  699.9999m 
 -443.67475m  160.9908n  699.9999m 
 -443.57475m  160.9126n  699.9999m 
 -443.47475m  160.8345n  699.9999m 
 -443.37475m  160.7564n  699.9999m 
 -443.27475m  160.6784n  699.9999m 
 -443.17475m  160.6004n  699.9999m 
 -443.07475m  160.5225n  699.9999m 
 -442.97475m  160.4446n  699.9999m 
 -442.87475m  160.3667n  699.9999m 
 -442.77475m  160.2889n  699.9999m 
 -442.67475m  160.2111n  699.9999m 
 -442.57475m  160.1333n  699.9999m 
 -442.47475m  160.0556n  699.9999m 
 -442.37475m  159.9780n  699.9999m 
 -442.27475m  159.9003n  699.9999m 
 -442.17475m  159.8228n  699.9999m 
 -442.07475m  159.7452n  699.9999m 
 -441.97475m  159.6677n  699.9999m 
 -441.87475m  159.5902n  699.9999m 
 -441.77475m  159.5128n  699.9999m 
 -441.67475m  159.4354n  699.9999m 
 -441.57475m  159.3581n  699.9999m 
 -441.47475m  159.2808n  699.9999m 
 -441.37475m  159.2035n  699.9999m 
 -441.27475m  159.1263n  699.9999m 
 -441.17475m  159.0491n  699.9999m 
 -441.07475m  158.9719n  699.9999m 
 -440.97475m  158.8948n  699.9999m 
 -440.87475m  158.8177n  699.9999m 
 -440.77475m  158.7407n  699.9999m 
 -440.67475m  158.6637n  699.9999m 
 -440.57475m  158.5867n  699.9999m 
 -440.47475m  158.5098n  699.9999m 
 -440.37475m  158.4329n  699.9999m 
 -440.27475m  158.3561n  699.9999m 
 -440.17475m  158.2793n  699.9999m 
 -440.07475m  158.2026n  699.9999m 
 -439.97475m  158.1258n  699.9999m 
 -439.87475m  158.0491n  699.9999m 
 -439.77475m  157.9725n  699.9999m 
 -439.67475m  157.8959n  699.9999m 
 -439.57475m  157.8193n  699.9999m 
 -439.47475m  157.7428n  699.9999m 
 -439.37475m  157.6663n  699.9999m 
 -439.27475m  157.5899n  699.9999m 
 -439.17475m  157.5135n  699.9999m 
 -439.07475m  157.4371n  699.9999m 
 -438.97475m  157.3607n  699.9999m 
 -438.87475m  157.2845n  699.9999m 
 -438.77475m  157.2082n  699.9999m 
 -438.67475m  157.1320n  699.9999m 
 -438.57475m  157.0558n  699.9999m 
 -438.47475m  156.9797n  699.9999m 
 -438.37475m  156.9036n  699.9999m 
 -438.27475m  156.8275n  699.9999m 
 -438.17475m  156.7515n  699.9999m 
 -438.07475m  156.6755n  699.9999m 
 -437.97475m  156.5995n  699.9999m 
 -437.87475m  156.5236n  699.9999m 
 -437.77475m  156.4477n  699.9999m 
 -437.67475m  156.3719n  699.9999m 
 -437.57475m  156.2961n  699.9999m 
 -437.47475m  156.2203n  699.9999m 
 -437.37475m  156.1446n  699.9999m 
 -437.27475m  156.0689n  699.9999m 
 -437.17475m  155.9933n  699.9999m 
 -437.07475m  155.9177n  699.9999m 
 -436.97475m  155.8421n  699.9999m 
 -436.87475m  155.7666n  699.9999m 
 -436.77475m  155.6911n  699.9999m 
 -436.67475m  155.6156n  699.9999m 
 -436.57475m  155.5402n  699.9999m 
 -436.47475m  155.4648n  699.9999m 
 -436.37475m  155.3895n  699.9999m 
 -436.27475m  155.3142n  699.9999m 
 -436.17475m  155.2389n  699.9999m 
 -436.07475m  155.1637n  699.9999m 
 -435.97475m  155.0885n  699.9999m 
 -435.87475m  155.0133n  699.9999m 
 -435.77475m  154.9382n  699.9999m 
 -435.67475m  154.8632n  699.9999m 
 -435.57475m  154.7881n  699.9999m 
 -435.47475m  154.7131n  699.9999m 
 -435.37475m  154.6381n  699.9999m 
 -435.27475m  154.5632n  699.9999m 
 -435.17475m  154.4883n  699.9999m 
 -435.07475m  154.4135n  699.9999m 
 -434.97475m  154.3386n  699.9999m 
 -434.87475m  154.2639n  699.9999m 
 -434.77475m  154.1891n  699.9999m 
 -434.67475m  154.1144n  699.9999m 
 -434.57475m  154.0397n  699.9999m 
 -434.47475m  153.9651n  699.9999m 
 -434.37475m  153.8905n  699.9999m 
 -434.27475m  153.8159n  699.9999m 
 -434.17475m  153.7414n  699.9999m 
 -434.07475m  153.6669n  699.9999m 
 -433.97475m  153.5925n  699.9999m 
 -433.87475m  153.5181n  699.9999m 
 -433.77475m  153.4437n  699.9999m 
 -433.67475m  153.3694n  699.9999m 
 -433.57475m  153.2951n  699.9999m 
 -433.47475m  153.2208n  699.9999m 
 -433.37475m  153.1466n  699.9999m 
 -433.27475m  153.0724n  699.9999m 
 -433.17475m  152.9982n  699.9999m 
 -433.07475m  152.9241n  699.9999m 
 -432.97475m  152.8500n  699.9999m 
 -432.87475m  152.7760n  699.9999m 
 -432.77475m  152.7020n  699.9999m 
 -432.67475m  152.6280n  699.9999m 
 -432.57475m  152.5541n  699.9999m 
 -432.47475m  152.4802n  699.9999m 
 -432.37475m  152.4063n  699.9999m 
 -432.27475m  152.3325n  699.9999m 
 -432.17475m  152.2587n  699.9999m 
 -432.07475m  152.1849n  699.9999m 
 -431.97475m  152.1112n  699.9999m 
 -431.87475m  152.0375n  699.9999m 
 -431.77475m  151.9639n  699.9999m 
 -431.67475m  151.8903n  699.9999m 
 -431.57475m  151.8167n  699.9999m 
 -431.47475m  151.7432n  699.9999m 
 -431.37475m  151.6697n  699.9999m 
 -431.27475m  151.5962n  699.9999m 
 -431.17475m  151.5228n  699.9999m 
 -431.07475m  151.4494n  699.9999m 
 -430.97475m  151.3760n  699.9999m 
 -430.87475m  151.3027n  699.9999m 
 -430.77475m  151.2294n  699.9999m 
 -430.67475m  151.1562n  699.9999m 
 -430.57475m  151.0829n  699.9999m 
 -430.47475m  151.0098n  699.9999m 
 -430.37475m  150.9366n  699.9999m 
 -430.27475m  150.8635n  699.9999m 
 -430.17475m  150.7904n  699.9999m 
 -430.07475m  150.7174n  699.9999m 
 -429.97475m  150.6444n  699.9999m 
 -429.87475m  150.5714n  699.9999m 
 -429.77475m  150.4985n  699.9999m 
 -429.67475m  150.4256n  699.9999m 
 -429.57475m  150.3528n  699.9999m 
 -429.47475m  150.2799n  699.9999m 
 -429.37475m  150.2071n  699.9999m 
 -429.27475m  150.1344n  699.9999m 
 -429.17475m  150.0617n  699.9999m 
 -429.07475m  149.9890n  699.9999m 
 -428.97475m  149.9163n  699.9999m 
 -428.87475m  149.8437n  699.9999m 
 -428.77475m  149.7712n  699.9999m 
 -428.67475m  149.6986n  699.9999m 
 -428.57475m  149.6261n  699.9999m 
 -428.47475m  149.5536n  699.9999m 
 -428.37475m  149.4812n  699.9999m 
 -428.27475m  149.4088n  699.9999m 
 -428.17475m  149.3364n  699.9999m 
 -428.07475m  149.2641n  699.9999m 
 -427.97475m  149.1918n  699.9999m 
 -427.87475m  149.1195n  699.9999m 
 -427.77475m  149.0473n  699.9999m 
 -427.67475m  148.9751n  699.9999m 
 -427.57475m  148.9030n  699.9999m 
 -427.47475m  148.8308n  699.9999m 
 -427.37475m  148.7588n  699.9999m 
 -427.27475m  148.6867n  699.9999m 
 -427.17475m  148.6147n  699.9999m 
 -427.07475m  148.5427n  699.9999m 
 -426.97475m  148.4708n  699.9999m 
 -426.87475m  148.3988n  699.9999m 
 -426.77475m  148.3270n  699.9999m 
 -426.67475m  148.2551n  699.9999m 
 -426.57475m  148.1833n  699.9999m 
 -426.47475m  148.1115n  699.9999m 
 -426.37475m  148.0398n  699.9999m 
 -426.27475m  147.9681n  699.9999m 
 -426.17475m  147.8964n  699.9999m 
 -426.07475m  147.8248n  699.9999m 
 -425.97475m  147.7532n  699.9999m 
 -425.87475m  147.6816n  699.9999m 
 -425.77475m  147.6100n  699.9999m 
 -425.67475m  147.5385n  699.9999m 
 -425.57475m  147.4671n  699.9999m 
 -425.47475m  147.3956n  699.9999m 
 -425.37475m  147.3242n  699.9999m 
 -425.27475m  147.2529n  699.9999m 
 -425.17475m  147.1815n  699.9999m 
 -425.07475m  147.1102n  699.9999m 
 -424.97475m  147.0390n  699.9999m 
 -424.87475m  146.9678n  699.9999m 
 -424.77475m  146.8966n  699.9999m 
 -424.67475m  146.8254n  699.9999m 
 -424.57475m  146.7543n  699.9999m 
 -424.47475m  146.6832n  699.9999m 
 -424.37475m  146.6121n  699.9999m 
 -424.27475m  146.5411n  699.9999m 
 -424.17475m  146.4701n  699.9999m 
 -424.07475m  146.3991n  699.9999m 
 -423.97475m  146.3282n  699.9999m 
 -423.87475m  146.2573n  699.9999m 
 -423.77475m  146.1865n  699.9999m 
 -423.67475m  146.1156n  699.9999m 
 -423.57475m  146.0448n  699.9999m 
 -423.47475m  145.9741n  699.9999m 
 -423.37475m  145.9034n  699.9999m 
 -423.27475m  145.8327n  699.9999m 
 -423.17475m  145.7620n  699.9999m 
 -423.07475m  145.6914n  699.9999m 
 -422.97475m  145.6208n  699.9999m 
 -422.87475m  145.5502n  699.9999m 
 -422.77475m  145.4797n  699.9999m 
 -422.67475m  145.4092n  699.9999m 
 -422.57475m  145.3388n  699.9999m 
 -422.47475m  145.2683n  699.9999m 
 -422.37475m  145.1979n  699.9999m 
 -422.27475m  145.1276n  699.9999m 
 -422.17475m  145.0573n  699.9999m 
 -422.07475m  144.9870n  699.9999m 
 -421.97475m  144.9167n  699.9999m 
 -421.87475m  144.8465n  699.9999m 
 -421.77475m  144.7763n  699.9999m 
 -421.67475m  144.7061n  699.9999m 
 -421.57475m  144.6360n  699.9999m 
 -421.47475m  144.5659n  699.9999m 
 -421.37475m  144.4958n  699.9999m 
 -421.27475m  144.4258n  699.9999m 
 -421.17475m  144.3558n  699.9999m 
 -421.07475m  144.2859n  699.9999m 
 -420.97475m  144.2159n  699.9999m 
 -420.87475m  144.1460n  699.9999m 
 -420.77475m  144.0762n  699.9999m 
 -420.67475m  144.0063n  699.9999m 
 -420.57475m  143.9365n  699.9999m 
 -420.47475m  143.8668n  699.9999m 
 -420.37475m  143.7970n  699.9999m 
 -420.27475m  143.7273n  699.9999m 
 -420.17475m  143.6577n  699.9999m 
 -420.07475m  143.5880n  699.9999m 
 -419.97475m  143.5184n  699.9999m 
 -419.87475m  143.4489n  699.9999m 
 -419.77475m  143.3793n  699.9999m 
 -419.67475m  143.3098n  699.9999m 
 -419.57475m  143.2403n  699.9999m 
 -419.47475m  143.1709n  699.9999m 
 -419.37475m  143.1015n  699.9999m 
 -419.27475m  143.0321n  699.9999m 
 -419.17475m  142.9628n  699.9999m 
 -419.07475m  142.8934n  699.9999m 
 -418.97475m  142.8242n  699.9999m 
 -418.87475m  142.7549n  699.9999m 
 -418.77475m  142.6857n  699.9999m 
 -418.67475m  142.6165n  699.9999m 
 -418.57475m  142.5474n  699.9999m 
 -418.47475m  142.4782n  699.9999m 
 -418.37475m  142.4091n  699.9999m 
 -418.27475m  142.3401n  699.9999m 
 -418.17475m  142.2711n  699.9999m 
 -418.07475m  142.2021n  699.9999m 
 -417.97475m  142.1331n  699.9999m 
 -417.87475m  142.0642n  699.9999m 
 -417.77475m  141.9953n  699.9999m 
 -417.67475m  141.9264n  699.9999m 
 -417.57475m  141.8576n  699.9999m 
 -417.47475m  141.7888n  699.9999m 
 -417.37475m  141.7200n  699.9999m 
 -417.27475m  141.6513n  699.9999m 
 -417.17475m  141.5826n  699.9999m 
 -417.07475m  141.5139n  699.9999m 
 -416.97475m  141.4453n  699.9999m 
 -416.87475m  141.3766n  699.9999m 
 -416.77475m  141.3081n  699.9999m 
 -416.67475m  141.2395n  699.9999m 
 -416.57475m  141.1710n  699.9999m 
 -416.47475m  141.1025n  699.9999m 
 -416.37475m  141.0341n  699.9999m 
 -416.27475m  140.9656n  699.9999m 
 -416.17475m  140.8972n  699.9999m 
 -416.07475m  140.8289n  699.9999m 
 -415.97475m  140.7605n  699.9999m 
 -415.87475m  140.6923n  699.9999m 
 -415.77475m  140.6240n  699.9999m 
 -415.67475m  140.5557n  699.9999m 
 -415.57475m  140.4875n  699.9999m 
 -415.47475m  140.4194n  699.9999m 
 -415.37475m  140.3512n  699.9999m 
 -415.27475m  140.2831n  699.9999m 
 -415.17475m  140.2150n  699.9999m 
 -415.07475m  140.1470n  699.9999m 
 -414.97475m  140.0790n  699.9999m 
 -414.87475m  140.0110n  699.9999m 
 -414.77475m  139.9430n  699.9999m 
 -414.67475m  139.8751n  699.9999m 
 -414.57475m  139.8072n  699.9999m 
 -414.47475m  139.7394n  699.9999m 
 -414.37475m  139.6715n  699.9999m 
 -414.27475m  139.6037n  699.9999m 
 -414.17475m  139.5359n  699.9999m 
 -414.07475m  139.4682n  699.9999m 
 -413.97475m  139.4005n  699.9999m 
 -413.87475m  139.3328n  699.9999m 
 -413.77475m  139.2652n  699.9999m 
 -413.67475m  139.1976n  699.9999m 
 -413.57475m  139.1300n  699.9999m 
 -413.47475m  139.0624n  699.9999m 
 -413.37475m  138.9949n  699.9999m 
 -413.27475m  138.9274n  699.9999m 
 -413.17475m  138.8599n  699.9999m 
 -413.07475m  138.7925n  699.9999m 
 -412.97475m  138.7251n  699.9999m 
 -412.87475m  138.6577n  699.9999m 
 -412.77475m  138.5904n  699.9999m 
 -412.67475m  138.5231n  699.9999m 
 -412.57475m  138.4558n  699.9999m 
 -412.47475m  138.3885n  699.9999m 
 -412.37475m  138.3213n  699.9999m 
 -412.27475m  138.2541n  699.9999m 
 -412.17475m  138.1870n  699.9999m 
 -412.07475m  138.1198n  699.9999m 
 -411.97475m  138.0527n  699.9999m 
 -411.87475m  137.9857n  699.9999m 
 -411.77475m  137.9186n  699.9999m 
 -411.67475m  137.8516n  699.9999m 
 -411.57475m  137.7847n  699.9999m 
 -411.47475m  137.7177n  699.9999m 
 -411.37475m  137.6508n  699.9999m 
 -411.27475m  137.5839n  699.9999m 
 -411.17475m  137.5170n  699.9999m 
 -411.07475m  137.4502n  699.9999m 
 -410.97475m  137.3834n  699.9999m 
 -410.87475m  137.3166n  699.9999m 
 -410.77475m  137.2499n  699.9999m 
 -410.67475m  137.1832n  699.9999m 
 -410.57475m  137.1165n  699.9999m 
 -410.47475m  137.0499n  699.9999m 
 -410.37475m  136.9832n  699.9999m 
 -410.27475m  136.9167n  699.9999m 
 -410.17475m  136.8501n  699.9999m 
 -410.07475m  136.7836n  699.9999m 
 -409.97475m  136.7171n  699.9999m 
 -409.87475m  136.6506n  699.9999m 
 -409.77475m  136.5842n  699.9999m 
 -409.67475m  136.5177n  699.9999m 
 -409.57475m  136.4514n  699.9999m 
 -409.47475m  136.3850n  699.9999m 
 -409.37475m  136.3187n  699.9999m 
 -409.27475m  136.2524n  699.9999m 
 -409.17475m  136.1861n  699.9999m 
 -409.07475m  136.1199n  699.9999m 
 -408.97475m  136.0537n  699.9999m 
 -408.87475m  135.9875n  699.9999m 
 -408.77475m  135.9214n  699.9999m 
 -408.67475m  135.8552n  699.9999m 
 -408.57475m  135.7892n  699.9999m 
 -408.47475m  135.7231n  699.9999m 
 -408.37475m  135.6571n  699.9999m 
 -408.27475m  135.5911n  699.9999m 
 -408.17475m  135.5251n  699.9999m 
 -408.07475m  135.4592n  699.9999m 
 -407.97475m  135.3932n  699.9999m 
 -407.87475m  135.3274n  699.9999m 
 -407.77475m  135.2615n  699.9999m 
 -407.67475m  135.1957n  699.9999m 
 -407.57475m  135.1299n  699.9999m 
 -407.47475m  135.0641n  699.9999m 
 -407.37475m  134.9984n  699.9999m 
 -407.27475m  134.9327n  699.9999m 
 -407.17475m  134.8670n  699.9999m 
 -407.07475m  134.8013n  699.9999m 
 -406.97475m  134.7357n  699.9999m 
 -406.87475m  134.6701n  699.9999m 
 -406.77475m  134.6046n  699.9999m 
 -406.67475m  134.5390n  699.9999m 
 -406.57475m  134.4735n  699.9999m 
 -406.47475m  134.4080n  699.9999m 
 -406.37475m  134.3426n  699.9999m 
 -406.27475m  134.2772n  699.9999m 
 -406.17475m  134.2118n  699.9999m 
 -406.07475m  134.1464n  699.9999m 
 -405.97475m  134.0811n  699.9999m 
 -405.87475m  134.0158n  699.9999m 
 -405.77475m  133.9505n  699.9999m 
 -405.67475m  133.8852n  699.9999m 
 -405.57475m  133.8200n  699.9999m 
 -405.47475m  133.7548n  699.9999m 
 -405.37475m  133.6897n  699.9999m 
 -405.27475m  133.6245n  699.9999m 
 -405.17475m  133.5594n  699.9999m 
 -405.07475m  133.4944n  699.9999m 
 -404.97475m  133.4293n  699.9999m 
 -404.87475m  133.3643n  699.9999m 
 -404.77475m  133.2993n  699.9999m 
 -404.67475m  133.2343n  699.9999m 
 -404.57475m  133.1694n  699.9999m 
 -404.47475m  133.1045n  699.9999m 
 -404.37475m  133.0396n  699.9999m 
 -404.27475m  132.9747n  699.9999m 
 -404.17475m  132.9099n  699.9999m 
 -404.07475m  132.8451n  699.9999m 
 -403.97475m  132.7804n  699.9999m 
 -403.87475m  132.7156n  699.9999m 
 -403.77475m  132.6509n  699.9999m 
 -403.67475m  132.5862n  699.9999m 
 -403.57475m  132.5216n  699.9999m 
 -403.47475m  132.4569n  699.9999m 
 -403.37475m  132.3923n  699.9999m 
 -403.27475m  132.3278n  699.9999m 
 -403.17475m  132.2632n  699.9999m 
 -403.07475m  132.1987n  699.9999m 
 -402.97475m  132.1342n  699.9999m 
 -402.87475m  132.0698n  699.9999m 
 -402.77475m  132.0053n  699.9999m 
 -402.67475m  131.9409n  699.9999m 
 -402.57475m  131.8766n  699.9999m 
 -402.47475m  131.8122n  699.9999m 
 -402.37475m  131.7479n  699.9999m 
 -402.27475m  131.6836n  699.9999m 
 -402.17475m  131.6193n  699.9999m 
 -402.07475m  131.5551n  699.9999m 
 -401.97475m  131.4909n  699.9999m 
 -401.87475m  131.4267n  699.9999m 
 -401.77475m  131.3625n  699.9999m 
 -401.67475m  131.2984n  699.9999m 
 -401.57475m  131.2343n  699.9999m 
 -401.47475m  131.1702n  699.9999m 
 -401.37475m  131.1062n  699.9999m 
 -401.27475m  131.0422n  699.9999m 
 -401.17475m  130.9782n  699.9999m 
 -401.07475m  130.9142n  699.9999m 
 -400.97475m  130.8503n  699.9999m 
 -400.87475m  130.7864n  699.9999m 
 -400.77475m  130.7225n  699.9999m 
 -400.67475m  130.6587n  699.9999m 
 -400.57475m  130.5948n  699.9999m 
 -400.47475m  130.5310n  699.9999m 
 -400.37475m  130.4673n  699.9999m 
 -400.27475m  130.4035n  699.9999m 
 -400.17475m  130.3398n  699.9999m 
 -400.07475m  130.2761n  699.9999m 
 -399.97475m  130.2125n  699.9999m 
 -399.87475m  130.1488n  699.9999m 
 -399.77475m  130.0852n  699.9999m 
 -399.67475m  130.0216n  699.9999m 
 -399.57475m  129.9581n  699.9999m 
 -399.47475m  129.8946n  699.9999m 
 -399.37475m  129.8311n  699.9999m 
 -399.27475m  129.7676n  699.9999m 
 -399.17475m  129.7041n  699.9999m 
 -399.07475m  129.6407n  699.9999m 
 -398.97475m  129.5773n  699.9999m 
 -398.87475m  129.5140n  699.9999m 
 -398.77475m  129.4506n  699.9999m 
 -398.67475m  129.3873n  699.9999m 
 -398.57475m  129.3240n  699.9999m 
 -398.47475m  129.2608n  699.9999m 
 -398.37475m  129.1975n  699.9999m 
 -398.27475m  129.1343n  699.9999m 
 -398.17475m  129.0712n  699.9999m 
 -398.07475m  129.0080n  699.9999m 
 -397.97475m  128.9449n  699.9999m 
 -397.87475m  128.8818n  699.9999m 
 -397.77475m  128.8187n  699.9999m 
 -397.67475m  128.7557n  699.9999m 
 -397.57475m  128.6926n  699.9999m 
 -397.47475m  128.6297n  699.9999m 
 -397.37475m  128.5667n  699.9999m 
 -397.27475m  128.5038n  699.9999m 
 -397.17475m  128.4408n  699.9999m 
 -397.07475m  128.3780n  699.9999m 
 -396.97475m  128.3151n  699.9999m 
 -396.87475m  128.2523n  699.9999m 
 -396.77475m  128.1895n  699.9999m 
 -396.67475m  128.1267n  699.9999m 
 -396.57475m  128.0639n  699.9999m 
 -396.47475m  128.0012n  699.9999m 
 -396.37475m  127.9385n  699.9999m 
 -396.27475m  127.8758n  699.9999m 
 -396.17475m  127.8132n  699.9999m 
 -396.07475m  127.7506n  699.9999m 
 -395.97475m  127.6880n  699.9999m 
 -395.87475m  127.6254n  699.9999m 
 -395.77475m  127.5629n  699.9999m 
 -395.67475m  127.5003n  699.9999m 
 -395.57475m  127.4378n  699.9999m 
 -395.47475m  127.3754n  699.9999m 
 -395.37475m  127.3129n  699.9999m 
 -395.27475m  127.2505n  699.9999m 
 -395.17475m  127.1881n  699.9999m 
 -395.07475m  127.1258n  699.9999m 
 -394.97475m  127.0635n  699.9999m 
 -394.87475m  127.0011n  699.9999m 
 -394.77475m  126.9389n  699.9999m 
 -394.67475m  126.8766n  699.9999m 
 -394.57475m  126.8144n  699.9999m 
 -394.47475m  126.7522n  699.9999m 
 -394.37475m  126.6900n  699.9999m 
 -394.27475m  126.6278n  699.9999m 
 -394.17475m  126.5657n  699.9999m 
 -394.07475m  126.5036n  699.9999m 
 -393.97475m  126.4415n  699.9999m 
 -393.87475m  126.3795n  699.9999m 
 -393.77475m  126.3175n  699.9999m 
 -393.67475m  126.2555n  699.9999m 
 -393.57475m  126.1935n  699.9999m 
 -393.47475m  126.1315n  699.9999m 
 -393.37475m  126.0696n  699.9999m 
 -393.27475m  126.0077n  699.9999m 
 -393.17475m  125.9459n  699.9999m 
 -393.07475m  125.8840n  699.9999m 
 -392.97475m  125.8222n  699.9999m 
 -392.87475m  125.7604n  699.9999m 
 -392.77475m  125.6986n  699.9999m 
 -392.67475m  125.6369n  699.9999m 
 -392.57475m  125.5752n  699.9999m 
 -392.47475m  125.5135n  699.9999m 
 -392.37475m  125.4518n  699.9999m 
 -392.27475m  125.3902n  699.9999m 
 -392.17475m  125.3286n  699.9999m 
 -392.07475m  125.2670n  699.9999m 
 -391.97475m  125.2054n  699.9999m 
 -391.87475m  125.1439n  699.9999m 
 -391.77475m  125.0823n  699.9999m 
 -391.67475m  125.0209n  699.9999m 
 -391.57475m  124.9594n  699.9999m 
 -391.47475m  124.8979n  699.9999m 
 -391.37475m  124.8365n  699.9999m 
 -391.27475m  124.7751n  699.9999m 
 -391.17475m  124.7138n  699.9999m 
 -391.07475m  124.6524n  699.9999m 
 -390.97475m  124.5911n  699.9999m 
 -390.87475m  124.5298n  699.9999m 
 -390.77475m  124.4686n  699.9999m 
 -390.67475m  124.4073n  699.9999m 
 -390.57475m  124.3461n  699.9999m 
 -390.47475m  124.2849n  699.9999m 
 -390.37475m  124.2238n  699.9999m 
 -390.27475m  124.1626n  699.9999m 
 -390.17475m  124.1015n  699.9999m 
 -390.07475m  124.0404n  699.9999m 
 -389.97475m  123.9794n  699.9999m 
 -389.87475m  123.9183n  699.9999m 
 -389.77475m  123.8573n  699.9999m 
 -389.67475m  123.7963n  699.9999m 
 -389.57475m  123.7354n  699.9999m 
 -389.47475m  123.6744n  699.9999m 
 -389.37475m  123.6135n  699.9999m 
 -389.27475m  123.5526n  699.9999m 
 -389.17475m  123.4918n  699.9999m 
 -389.07475m  123.4309n  699.9999m 
 -388.97475m  123.3701n  699.9999m 
 -388.87475m  123.3093n  699.9999m 
 -388.77475m  123.2485n  699.9999m 
 -388.67475m  123.1878n  699.9999m 
 -388.57475m  123.1271n  699.9999m 
 -388.47475m  123.0664n  699.9999m 
 -388.37475m  123.0057n  699.9999m 
 -388.27475m  122.9451n  699.9999m 
 -388.17475m  122.8845n  699.9999m 
 -388.07475m  122.8239n  699.9999m 
 -387.97475m  122.7633n  699.9999m 
 -387.87475m  122.7027n  699.9999m 
 -387.77475m  122.6422n  699.9999m 
 -387.67475m  122.5817n  699.9999m 
 -387.57475m  122.5213n  699.9999m 
 -387.47475m  122.4608n  699.9999m 
 -387.37475m  122.4004n  699.9999m 
 -387.27475m  122.3400n  699.9999m 
 -387.17475m  122.2796n  699.9999m 
 -387.07475m  122.2193n  699.9999m 
 -386.97475m  122.1589n  699.9999m 
 -386.87475m  122.0986n  699.9999m 
 -386.77475m  122.0383n  699.9999m 
 -386.67475m  121.9781n  699.9999m 
 -386.57475m  121.9179n  699.9999m 
 -386.47475m  121.8577n  699.9999m 
 -386.37475m  121.7975n  699.9999m 
 -386.27475m  121.7373n  699.9999m 
 -386.17475m  121.6772n  699.9999m 
 -386.07475m  121.6171n  699.9999m 
 -385.97475m  121.5570n  699.9999m 
 -385.87475m  121.4969n  699.9999m 
 -385.77475m  121.4369n  699.9999m 
 -385.67475m  121.3769n  699.9999m 
 -385.57475m  121.3169n  699.9999m 
 -385.47475m  121.2569n  699.9999m 
 -385.37475m  121.1970n  699.9999m 
 -385.27475m  121.1371n  699.9999m 
 -385.17475m  121.0772n  699.9999m 
 -385.07475m  121.0173n  699.9999m 
 -384.97475m  120.9574n  699.9999m 
 -384.87475m  120.8976n  699.9999m 
 -384.77475m  120.8378n  699.9999m 
 -384.67475m  120.7780n  699.9999m 
 -384.57475m  120.7183n  699.9999m 
 -384.47475m  120.6586n  699.9999m 
 -384.37475m  120.5989n  699.9999m 
 -384.27475m  120.5392n  699.9999m 
 -384.17475m  120.4795n  699.9999m 
 -384.07475m  120.4199n  699.9999m 
 -383.97475m  120.3603n  699.9999m 
 -383.87475m  120.3007n  699.9999m 
 -383.77475m  120.2411n  699.9999m 
 -383.67475m  120.1816n  699.9999m 
 -383.57475m  120.1221n  699.9999m 
 -383.47475m  120.0626n  699.9999m 
 -383.37475m  120.0031n  699.9999m 
 -383.27475m  119.9437n  699.9999m 
 -383.17475m  119.8843n  699.9999m 
 -383.07475m  119.8249n  699.9999m 
 -382.97475m  119.7655n  699.9999m 
 -382.87475m  119.7061n  699.9999m 
 -382.77475m  119.6468n  699.9999m 
 -382.67475m  119.5875n  699.9999m 
 -382.57475m  119.5282n  699.9999m 
 -382.47475m  119.4690n  699.9999m 
 -382.37475m  119.4097n  699.9999m 
 -382.27475m  119.3505n  699.9999m 
 -382.17475m  119.2913n  699.9999m 
 -382.07475m  119.2322n  699.9999m 
 -381.97475m  119.1730n  699.9999m 
 -381.87475m  119.1139n  699.9999m 
 -381.77475m  119.0548n  699.9999m 
 -381.67475m  118.9957n  699.9999m 
 -381.57475m  118.9367n  699.9999m 
 -381.47475m  118.8777n  699.9999m 
 -381.37475m  118.8187n  699.9999m 
 -381.27475m  118.7597n  699.9999m 
 -381.17475m  118.7007n  699.9999m 
 -381.07475m  118.6418n  699.9999m 
 -380.97475m  118.5829n  699.9999m 
 -380.87475m  118.5240n  699.9999m 
 -380.77475m  118.4651n  699.9999m 
 -380.67475m  118.4063n  699.9999m 
 -380.57475m  118.3475n  699.9999m 
 -380.47475m  118.2887n  699.9999m 
 -380.37475m  118.2299n  699.9999m 
 -380.27475m  118.1711n  699.9999m 
 -380.17475m  118.1124n  699.9999m 
 -380.07475m  118.0537n  699.9999m 
 -379.97475m  117.9950n  699.9999m 
 -379.87475m  117.9364n  699.9999m 
 -379.77475m  117.8777n  699.9999m 
 -379.67475m  117.8191n  699.9999m 
 -379.57475m  117.7605n  699.9999m 
 -379.47475m  117.7020n  699.9999m 
 -379.37475m  117.6434n  699.9999m 
 -379.27475m  117.5849n  699.9999m 
 -379.17475m  117.5264n  699.9999m 
 -379.07475m  117.4679n  699.9999m 
 -378.97475m  117.4095n  699.9999m 
 -378.87475m  117.3510n  699.9999m 
 -378.77475m  117.2926n  699.9999m 
 -378.67475m  117.2342n  699.9999m 
 -378.57475m  117.1759n  699.9999m 
 -378.47475m  117.1175n  699.9999m 
 -378.37475m  117.0592n  699.9999m 
 -378.27475m  117.0009n  699.9999m 
 -378.17475m  116.9426n  699.9999m 
 -378.07475m  116.8844n  699.9999m 
 -377.97475m  116.8262n  699.9999m 
 -377.87475m  116.7680n  699.9999m 
 -377.77475m  116.7098n  699.9999m 
 -377.67475m  116.6516n  699.9999m 
 -377.57475m  116.5935n  699.9999m 
 -377.47475m  116.5353n  699.9999m 
 -377.37475m  116.4773n  699.9999m 
 -377.27475m  116.4192n  699.9999m 
 -377.17475m  116.3611n  699.9999m 
 -377.07475m  116.3031n  699.9999m 
 -376.97475m  116.2451n  699.9999m 
 -376.87475m  116.1871n  699.9999m 
 -376.77475m  116.1292n  699.9999m 
 -376.67475m  116.0712n  699.9999m 
 -376.57475m  116.0133n  699.9999m 
 -376.47475m  115.9554n  699.9999m 
 -376.37475m  115.8975n  699.9999m 
 -376.27475m  115.8397n  699.9999m 
 -376.17475m  115.7818n  699.9999m 
 -376.07475m  115.7240n  699.9999m 
 -375.97475m  115.6663n  699.9999m 
 -375.87475m  115.6085n  699.9999m 
 -375.77475m  115.5508n  699.9999m 
 -375.67475m  115.4930n  699.9999m 
 -375.57475m  115.4353n  699.9999m 
 -375.47475m  115.3777n  699.9999m 
 -375.37475m  115.3200n  699.9999m 
 -375.27475m  115.2624n  699.9999m 
 -375.17475m  115.2048n  699.9999m 
 -375.07475m  115.1472n  699.9999m 
 -374.97475m  115.0896n  699.9999m 
 -374.87475m  115.0321n  699.9999m 
 -374.77475m  114.9746n  699.9999m 
 -374.67475m  114.9171n  699.9999m 
 -374.57475m  114.8596n  699.9999m 
 -374.47475m  114.8021n  699.9999m 
 -374.37475m  114.7447n  699.9999m 
 -374.27475m  114.6873n  699.9999m 
 -374.17475m  114.6299n  699.9999m 
 -374.07475m  114.5725n  699.9999m 
 -373.97475m  114.5152n  699.9999m 
 -373.87475m  114.4578n  699.9999m 
 -373.77475m  114.4005n  699.9999m 
 -373.67475m  114.3433n  699.9999m 
 -373.57475m  114.2860n  699.9999m 
 -373.47475m  114.2288n  699.9999m 
 -373.37475m  114.1715n  699.9999m 
 -373.27475m  114.1143n  699.9999m 
 -373.17475m  114.0572n  699.9999m 
 -373.07475m  114.0000n  699.9999m 
 -372.97475m  113.9429n  699.9999m 
 -372.87475m  113.8858n  699.9999m 
 -372.77475m  113.8287n  699.9999m 
 -372.67475m  113.7716n  699.9999m 
 -372.57475m  113.7146n  699.9999m 
 -372.47475m  113.6575n  699.9999m 
 -372.37475m  113.6005n  699.9999m 
 -372.27475m  113.5436n  699.9999m 
 -372.17475m  113.4866n  699.9999m 
 -372.07475m  113.4297n  699.9999m 
 -371.97475m  113.3727n  699.9999m 
 -371.87475m  113.3158n  699.9999m 
 -371.77475m  113.2590n  699.9999m 
 -371.67475m  113.2021n  699.9999m 
 -371.57475m  113.1453n  699.9999m 
 -371.47475m  113.0885n  699.9999m 
 -371.37475m  113.0317n  699.9999m 
 -371.27475m  112.9749n  699.9999m 
 -371.17475m  112.9182n  699.9999m 
 -371.07475m  112.8614n  699.9999m 
 -370.97475m  112.8047n  699.9999m 
 -370.87475m  112.7480n  699.9999m 
 -370.77475m  112.6914n  699.9999m 
 -370.67475m  112.6347n  699.9999m 
 -370.57475m  112.5781n  699.9999m 
 -370.47475m  112.5215n  699.9999m 
 -370.37475m  112.4649n  699.9999m 
 -370.27475m  112.4084n  699.9999m 
 -370.17475m  112.3518n  699.9999m 
 -370.07475m  112.2953n  699.9999m 
 -369.97475m  112.2388n  699.9999m 
 -369.87475m  112.1824n  699.9999m 
 -369.77475m  112.1259n  699.9999m 
 -369.67475m  112.0695n  699.9999m 
 -369.57475m  112.0131n  699.9999m 
 -369.47475m  111.9567n  699.9999m 
 -369.37475m  111.9003n  699.9999m 
 -369.27475m  111.8439n  699.9999m 
 -369.17475m  111.7876n  699.9999m 
 -369.07475m  111.7313n  699.9999m 
 -368.97475m  111.6750n  699.9999m 
 -368.87475m  111.6188n  699.9999m 
 -368.77475m  111.5625n  699.9999m 
 -368.67475m  111.5063n  699.9999m 
 -368.57475m  111.4501n  699.9999m 
 -368.47475m  111.3939n  699.9999m 
 -368.37475m  111.3377n  699.9999m 
 -368.27475m  111.2816n  699.9999m 
 -368.17475m  111.2255n  699.9999m 
 -368.07475m  111.1694n  699.9999m 
 -367.97475m  111.1133n  699.9999m 
 -367.87475m  111.0572n  699.9999m 
 -367.77475m  111.0012n  699.9999m 
 -367.67475m  110.9452n  699.9999m 
 -367.57475m  110.8892n  699.9999m 
 -367.47475m  110.8332n  699.9999m 
 -367.37475m  110.7772n  699.9999m 
 -367.27475m  110.7213n  699.9999m 
 -367.17475m  110.6654n  699.9999m 
 -367.07475m  110.6095n  699.9999m 
 -366.97475m  110.5536n  699.9999m 
 -366.87475m  110.4978n  699.9999m 
 -366.77475m  110.4419n  699.9999m 
 -366.67475m  110.3861n  699.9999m 
 -366.57475m  110.3303n  699.9999m 
 -366.47475m  110.2746n  699.9999m 
 -366.37475m  110.2188n  699.9999m 
 -366.27475m  110.1631n  699.9999m 
 -366.17475m  110.1074n  699.9999m 
 -366.07475m  110.0517n  699.9999m 
 -365.97475m  109.9960n  699.9999m 
 -365.87475m  109.9404n  699.9999m 
 -365.77475m  109.8847n  699.9999m 
 -365.67475m  109.8291n  699.9999m 
 -365.57475m  109.7735n  699.9999m 
 -365.47475m  109.7179n  699.9999m 
 -365.37475m  109.6624n  699.9999m 
 -365.27475m  109.6069n  699.9999m 
 -365.17475m  109.5514n  699.9999m 
 -365.07475m  109.4959n  699.9999m 
 -364.97475m  109.4404n  699.9999m 
 -364.87475m  109.3850n  699.9999m 
 -364.77475m  109.3295n  699.9999m 
 -364.67475m  109.2741n  699.9999m 
 -364.57475m  109.2187n  699.9999m 
 -364.47475m  109.1634n  699.9999m 
 -364.37475m  109.1080n  699.9999m 
 -364.27475m  109.0527n  699.9999m 
 -364.17475m  108.9974n  699.9999m 
 -364.07475m  108.9421n  699.9999m 
 -363.97475m  108.8868n  699.9999m 
 -363.87475m  108.8316n  699.9999m 
 -363.77475m  108.7763n  699.9999m 
 -363.67475m  108.7211n  699.9999m 
 -363.57475m  108.6659n  699.9999m 
 -363.47475m  108.6108n  699.9999m 
 -363.37475m  108.5556n  699.9999m 
 -363.27475m  108.5005n  699.9999m 
 -363.17475m  108.4454n  699.9999m 
 -363.07475m  108.3903n  699.9999m 
 -362.97475m  108.3352n  699.9999m 
 -362.87475m  108.2802n  699.9999m 
 -362.77475m  108.2251n  699.9999m 
 -362.67475m  108.1701n  699.9999m 
 -362.57475m  108.1151n  699.9999m 
 -362.47475m  108.0601n  699.9999m 
 -362.37475m  108.0052n  699.9999m 
 -362.27475m  107.9503n  699.9999m 
 -362.17475m  107.8953n  699.9999m 
 -362.07475m  107.8405n  699.9999m 
 -361.97475m  107.7856n  699.9999m 
 -361.87475m  107.7307n  699.9999m 
 -361.77475m  107.6759n  699.9999m 
 -361.67475m  107.6211n  699.9999m 
 -361.57475m  107.5663n  699.9999m 
 -361.47475m  107.5115n  699.9999m 
 -361.37475m  107.4567n  699.9999m 
 -361.27475m  107.4020n  699.9999m 
 -361.17475m  107.3473n  699.9999m 
 -361.07475m  107.2926n  699.9999m 
 -360.97475m  107.2379n  699.9999m 
 -360.87475m  107.1833n  699.9999m 
 -360.77475m  107.1286n  699.9999m 
 -360.67475m  107.0740n  699.9999m 
 -360.57475m  107.0194n  699.9999m 
 -360.47475m  106.9648n  699.9999m 
 -360.37475m  106.9102n  699.9999m 
 -360.27475m  106.8557n  699.9999m 
 -360.17475m  106.8012n  699.9999m 
 -360.07475m  106.7467n  699.9999m 
 -359.97475m  106.6922n  699.9999m 
 -359.87475m  106.6377n  699.9999m 
 -359.77475m  106.5833n  699.9999m 
 -359.67475m  106.5288n  699.9999m 
 -359.57475m  106.4744n  699.9999m 
 -359.47475m  106.4200n  699.9999m 
 -359.37475m  106.3657n  699.9999m 
 -359.27475m  106.3113n  699.9999m 
 -359.17475m  106.2570n  699.9999m 
 -359.07475m  106.2027n  699.9999m 
 -358.97475m  106.1484n  699.9999m 
 -358.87475m  106.0941n  699.9999m 
 -358.77475m  106.0399n  699.9999m 
 -358.67475m  105.9856n  699.9999m 
 -358.57475m  105.9314n  699.9999m 
 -358.47475m  105.8772n  699.9999m 
 -358.37475m  105.8230n  699.9999m 
 -358.27475m  105.7689n  699.9999m 
 -358.17475m  105.7147n  699.9999m 
 -358.07475m  105.6606n  699.9999m 
 -357.97475m  105.6065n  699.9999m 
 -357.87475m  105.5524n  699.9999m 
 -357.77475m  105.4984n  699.9999m 
 -357.67475m  105.4443n  699.9999m 
 -357.57475m  105.3903n  699.9999m 
 -357.47475m  105.3363n  699.9999m 
 -357.37475m  105.2823n  699.9999m 
 -357.27475m  105.2283n  699.9999m 
 -357.17475m  105.1744n  699.9999m 
 -357.07475m  105.1204n  699.9999m 
 -356.97475m  105.0665n  699.9999m 
 -356.87475m  105.0126n  699.9999m 
 -356.77475m  104.9587n  699.9999m 
 -356.67475m  104.9049n  699.9999m 
 -356.57475m  104.8510n  699.9999m 
 -356.47475m  104.7972n  699.9999m 
 -356.37475m  104.7434n  699.9999m 
 -356.27475m  104.6896n  699.9999m 
 -356.17475m  104.6359n  699.9999m 
 -356.07475m  104.5821n  699.9999m 
 -355.97475m  104.5284n  699.9999m 
 -355.87475m  104.4747n  699.9999m 
 -355.77475m  104.4210n  699.9999m 
 -355.67475m  104.3673n  699.9999m 
 -355.57475m  104.3137n  699.9999m 
 -355.47475m  104.2600n  699.9999m 
 -355.37475m  104.2064n  699.9999m 
 -355.27475m  104.1528n  699.9999m 
 -355.17475m  104.0993n  699.9999m 
 -355.07475m  104.0457n  699.9999m 
 -354.97475m  103.9922n  699.9999m 
 -354.87475m  103.9386n  699.9999m 
 -354.77475m  103.8851n  699.9999m 
 -354.67475m  103.8316n  699.9999m 
 -354.57475m  103.7782n  699.9999m 
 -354.47475m  103.7247n  699.9999m 
 -354.37475m  103.6713n  699.9999m 
 -354.27475m  103.6179n  699.9999m 
 -354.17475m  103.5645n  699.9999m 
 -354.07475m  103.5111n  699.9999m 
 -353.97475m  103.4578n  699.9999m 
 -353.87475m  103.4044n  699.9999m 
 -353.77475m  103.3511n  699.9999m 
 -353.67475m  103.2978n  699.9999m 
 -353.57475m  103.2445n  699.9999m 
 -353.47475m  103.1912n  699.9999m 
 -353.37475m  103.1380n  699.9999m 
 -353.27475m  103.0848n  699.9999m 
 -353.17475m  103.0316n  699.9999m 
 -353.07475m  102.9784n  699.9999m 
 -352.97475m  102.9252n  699.9999m 
 -352.87475m  102.8720n  699.9999m 
 -352.77475m  102.8189n  699.9999m 
 -352.67475m  102.7658n  699.9999m 
 -352.57475m  102.7127n  699.9999m 
 -352.47475m  102.6596n  699.9999m 
 -352.37475m  102.6065n  699.9999m 
 -352.27475m  102.5535n  699.9999m 
 -352.17475m  102.5005n  699.9999m 
 -352.07475m  102.4474n  699.9999m 
 -351.97475m  102.3944n  699.9999m 
 -351.87475m  102.3415n  699.9999m 
 -351.77475m  102.2885n  699.9999m 
 -351.67475m  102.2356n  699.9999m 
 -351.57475m  102.1827n  699.9999m 
 -351.47475m  102.1298n  699.9999m 
 -351.37475m  102.0769n  699.9999m 
 -351.27475m  102.0240n  699.9999m 
 -351.17475m  101.9712n  699.9999m 
 -351.07475m  101.9183n  699.9999m 
 -350.97475m  101.8655n  699.9999m 
 -350.87475m  101.8127n  699.9999m 
 -350.77475m  101.7599n  699.9999m 
 -350.67475m  101.7072n  699.9999m 
 -350.57475m  101.6544n  699.9999m 
 -350.47475m  101.6017n  699.9999m 
 -350.37475m  101.5490n  699.9999m 
 -350.27475m  101.4963n  699.9999m 
 -350.17475m  101.4437n  699.9999m 
 -350.07475m  101.3910n  699.9999m 
 -349.97475m  101.3384n  699.9999m 
 -349.87475m  101.2857n  699.9999m 
 -349.77475m  101.2331n  699.9999m 
 -349.67475m  101.1806n  699.9999m 
 -349.57475m  101.1280n  699.9999m 
 -349.47475m  101.0755n  699.9999m 
 -349.37475m  101.0229n  699.9999m 
 -349.27475m  100.9704n  699.9999m 
 -349.17475m  100.9179n  699.9999m 
 -349.07475m  100.8655n  699.9999m 
 -348.97475m  100.8130n  699.9999m 
 -348.87475m  100.7606n  699.9999m 
 -348.77475m  100.7081n  699.9999m 
 -348.67475m  100.6557n  699.9999m 
 -348.57475m  100.6033n  699.9999m 
 -348.47475m  100.5510n  699.9999m 
 -348.37475m  100.4986n  699.9999m 
 -348.27475m  100.4463n  699.9999m 
 -348.17475m  100.3940n  699.9999m 
 -348.07475m  100.3417n  699.9999m 
 -347.97475m  100.2894n  699.9999m 
 -347.87475m  100.2371n  699.9999m 
 -347.77475m  100.1849n  699.9999m 
 -347.67475m  100.1326n  699.9999m 
 -347.57475m  100.0804n  699.9999m 
 -347.47475m  100.0282n  699.9999m 
 -347.37475m   99.9761n  699.9999m 
 -347.27475m   99.9239n  699.9999m 
 -347.17475m   99.8718n  699.9999m 
 -347.07475m   99.8196n  699.9999m 
 -346.97475m   99.7675n  699.9999m 
 -346.87475m   99.7154n  699.9999m 
 -346.77475m   99.6634n  699.9999m 
 -346.67475m   99.6113n  699.9999m 
 -346.57475m   99.5593n  699.9999m 
 -346.47475m   99.5072n  699.9999m 
 -346.37475m   99.4552n  699.9999m 
 -346.27475m   99.4033n  699.9999m 
 -346.17475m   99.3513n  699.9999m 
 -346.07475m   99.2993n  699.9999m 
 -345.97475m   99.2474n  699.9999m 
 -345.87475m   99.1955n  699.9999m 
 -345.77475m   99.1436n  699.9999m 
 -345.67475m   99.0917n  699.9999m 
 -345.57475m   99.0398n  699.9999m 
 -345.47475m   98.9880n  699.9999m 
 -345.37475m   98.9361n  699.9999m 
 -345.27475m   98.8843n  699.9999m 
 -345.17475m   98.8325n  699.9999m 
 -345.07475m   98.7808n  699.9999m 
 -344.97475m   98.7290n  699.9999m 
 -344.87475m   98.6772n  699.9999m 
 -344.77475m   98.6255n  699.9999m 
 -344.67475m   98.5738n  699.9999m 
 -344.57475m   98.5221n  699.9999m 
 -344.47475m   98.4704n  699.9999m 
 -344.37475m   98.4188n  699.9999m 
 -344.27475m   98.3671n  699.9999m 
 -344.17475m   98.3155n  699.9999m 
 -344.07475m   98.2639n  699.9999m 
 -343.97475m   98.2123n  699.9999m 
 -343.87475m   98.1607n  699.9999m 
 -343.77475m   98.1092n  699.9999m 
 -343.67475m   98.0576n  699.9999m 
 -343.57475m   98.0061n  699.9999m 
 -343.47475m   97.9546n  699.9999m 
 -343.37475m   97.9031n  699.9999m 
 -343.27475m   97.8516n  699.9999m 
 -343.17475m   97.8002n  699.9999m 
 -343.07475m   97.7487n  699.9999m 
 -342.97475m   97.6973n  699.9999m 
 -342.87475m   97.6459n  699.9999m 
 -342.77475m   97.5945n  699.9999m 
 -342.67475m   97.5431n  699.9999m 
 -342.57475m   97.4918n  699.9999m 
 -342.47475m   97.4404n  699.9999m 
 -342.37475m   97.3891n  699.9999m 
 -342.27475m   97.3378n  699.9999m 
 -342.17475m   97.2865n  699.9999m 
 -342.07475m   97.2352n  699.9999m 
 -341.97475m   97.1840n  699.9999m 
 -341.87475m   97.1327n  699.9999m 
 -341.77475m   97.0815n  699.9999m 
 -341.67475m   97.0303n  699.9999m 
 -341.57475m   96.9791n  699.9999m 
 -341.47475m   96.9279n  699.9999m 
 -341.37475m   96.8768n  699.9999m 
 -341.27475m   96.8256n  699.9999m 
 -341.17475m   96.7745n  699.9999m 
 -341.07475m   96.7234n  699.9999m 
 -340.97475m   96.6723n  699.9999m 
 -340.87475m   96.6212n  699.9999m 
 -340.77475m   96.5702n  699.9999m 
 -340.67475m   96.5191n  699.9999m 
 -340.57475m   96.4681n  699.9999m 
 -340.47475m   96.4171n  699.9999m 
 -340.37475m   96.3661n  699.9999m 
 -340.27475m   96.3151n  699.9999m 
 -340.17475m   96.2642n  699.9999m 
 -340.07475m   96.2132n  699.9999m 
 -339.97475m   96.1623n  699.9999m 
 -339.87475m   96.1114n  699.9999m 
 -339.77475m   96.0605n  699.9999m 
 -339.67475m   96.0096n  699.9999m 
 -339.57475m   95.9588n  699.9999m 
 -339.47475m   95.9079n  699.9999m 
 -339.37475m   95.8571n  699.9999m 
 -339.27475m   95.8063n  699.9999m 
 -339.17475m   95.7555n  699.9999m 
 -339.07475m   95.7047n  699.9999m 
 -338.97475m   95.6539n  699.9999m 
 -338.87475m   95.6032n  699.9999m 
 -338.77475m   95.5525n  699.9999m 
 -338.67475m   95.5018n  699.9999m 
 -338.57475m   95.4511n  699.9999m 
 -338.47475m   95.4004n  699.9999m 
 -338.37475m   95.3497n  699.9999m 
 -338.27475m   95.2991n  699.9999m 
 -338.17475m   95.2484n  699.9999m 
 -338.07475m   95.1978n  699.9999m 
 -337.97475m   95.1472n  699.9999m 
 -337.87475m   95.0966n  699.9999m 
 -337.77475m   95.0461n  699.9999m 
 -337.67475m   94.9955n  699.9999m 
 -337.57475m   94.9450n  699.9999m 
 -337.47475m   94.8945n  699.9999m 
 -337.37475m   94.8439n  699.9999m 
 -337.27475m   94.7935n  699.9999m 
 -337.17475m   94.7430n  699.9999m 
 -337.07475m   94.6925n  699.9999m 
 -336.97475m   94.6421n  699.9999m 
 -336.87475m   94.5917n  699.9999m 
 -336.77475m   94.5413n  699.9999m 
 -336.67475m   94.4909n  699.9999m 
 -336.57475m   94.4405n  699.9999m 
 -336.47475m   94.3901n  699.9999m 
 -336.37475m   94.3398n  699.9999m 
 -336.27475m   94.2895n  699.9999m 
 -336.17475m   94.2392n  699.9999m 
 -336.07475m   94.1889n  699.9999m 
 -335.97475m   94.1386n  699.9999m 
 -335.87475m   94.0883n  699.9999m 
 -335.77475m   94.0381n  699.9999m 
 -335.67475m   93.9878n  699.9999m 
 -335.57475m   93.9376n  699.9999m 
 -335.47475m   93.8874n  699.9999m 
 -335.37475m   93.8372n  699.9999m 
 -335.27475m   93.7871n  699.9999m 
 -335.17475m   93.7369n  699.9999m 
 -335.07475m   93.6868n  699.9999m 
 -334.97475m   93.6367n  699.9999m 
 -334.87475m   93.5866n  699.9999m 
 -334.77475m   93.5365n  699.9999m 
 -334.67475m   93.4864n  699.9999m 
 -334.57475m   93.4363n  699.9999m 
 -334.47475m   93.3863n  699.9999m 
 -334.37475m   93.3363n  699.9999m 
 -334.27475m   93.2863n  699.9999m 
 -334.17475m   93.2363n  699.9999m 
 -334.07475m   93.1863n  699.9999m 
 -333.97475m   93.1363n  699.9999m 
 -333.87475m   93.0864n  699.9999m 
 -333.77475m   93.0364n  699.9999m 
 -333.67475m   92.9865n  699.9999m 
 -333.57475m   92.9366n  699.9999m 
 -333.47475m   92.8867n  699.9999m 
 -333.37475m   92.8369n  699.9999m 
 -333.27475m   92.7870n  699.9999m 
 -333.17475m   92.7372n  699.9999m 
 -333.07475m   92.6874n  699.9999m 
 -332.97475m   92.6375n  699.9999m 
 -332.87475m   92.5878n  699.9999m 
 -332.77475m   92.5380n  699.9999m 
 -332.67475m   92.4882n  699.9999m 
 -332.57475m   92.4385n  699.9999m 
 -332.47475m   92.3887n  699.9999m 
 -332.37475m   92.3390n  699.9999m 
 -332.27475m   92.2893n  699.9999m 
 -332.17475m   92.2396n  699.9999m 
 -332.07475m   92.1900n  699.9999m 
 -331.97475m   92.1403n  699.9999m 
 -331.87475m   92.0907n  699.9999m 
 -331.77475m   92.0411n  699.9999m 
 -331.67475m   91.9915n  699.9999m 
 -331.57475m   91.9419n  699.9999m 
 -331.47475m   91.8923n  699.9999m 
 -331.37475m   91.8427n  699.9999m 
 -331.27475m   91.7932n  699.9999m 
 -331.17475m   91.7437n  699.9999m 
 -331.07475m   91.6942n  699.9999m 
 -330.97475m   91.6447n  699.9999m 
 -330.87475m   91.5952n  699.9999m 
 -330.77475m   91.5457n  699.9999m 
 -330.67475m   91.4962n  699.9999m 
 -330.57475m   91.4468n  699.9999m 
 -330.47475m   91.3974n  699.9999m 
 -330.37475m   91.3480n  699.9999m 
 -330.27475m   91.2986n  699.9999m 
 -330.17475m   91.2492n  699.9999m 
 -330.07475m   91.1999n  699.9999m 
 -329.97475m   91.1505n  699.9999m 
 -329.87475m   91.1012n  699.9999m 
 -329.77475m   91.0519n  699.9999m 
 -329.67475m   91.0026n  699.9999m 
 -329.57475m   90.9533n  699.9999m 
 -329.47475m   90.9040n  699.9999m 
 -329.37475m   90.8548n  699.9999m 
 -329.27475m   90.8055n  699.9999m 
 -329.17475m   90.7563n  699.9999m 
 -329.07475m   90.7071n  699.9999m 
 -328.97475m   90.6579n  699.9999m 
 -328.87475m   90.6087n  699.9999m 
 -328.77475m   90.5595n  699.9999m 
 -328.67475m   90.5104n  699.9999m 
 -328.57475m   90.4613n  699.9999m 
 -328.47475m   90.4121n  699.9999m 
 -328.37475m   90.3630n  699.9999m 
 -328.27475m   90.3140n  699.9999m 
 -328.17475m   90.2649n  699.9999m 
 -328.07475m   90.2158n  699.9999m 
 -327.97475m   90.1668n  699.9999m 
 -327.87475m   90.1178n  699.9999m 
 -327.77475m   90.0687n  699.9999m 
 -327.67475m   90.0197n  699.9999m 
 -327.57475m   89.9708n  699.9999m 
 -327.47475m   89.9218n  699.9999m 
 -327.37475m   89.8728n  699.9999m 
 -327.27475m   89.8239n  699.9999m 
 -327.17475m   89.7750n  699.9999m 
 -327.07475m   89.7261n  699.9999m 
 -326.97475m   89.6772n  699.9999m 
 -326.87475m   89.6283n  699.9999m 
 -326.77475m   89.5794n  699.9999m 
 -326.67475m   89.5306n  699.9999m 
 -326.57475m   89.4817n  699.9999m 
 -326.47475m   89.4329n  699.9999m 
 -326.37475m   89.3841n  699.9999m 
 -326.27475m   89.3353n  699.9999m 
 -326.17475m   89.2865n  699.9999m 
 -326.07475m   89.2378n  699.9999m 
 -325.97475m   89.1890n  699.9999m 
 -325.87475m   89.1403n  699.9999m 
 -325.77475m   89.0916n  699.9999m 
 -325.67475m   89.0429n  699.9999m 
 -325.57475m   88.9942n  699.9999m 
 -325.47475m   88.9455n  699.9999m 
 -325.37475m   88.8969n  699.9999m 
 -325.27475m   88.8482n  699.9999m 
 -325.17475m   88.7996n  699.9999m 
 -325.07475m   88.7510n  699.9999m 
 -324.97475m   88.7024n  699.9999m 
 -324.87475m   88.6538n  699.9999m 
 -324.77475m   88.6052n  699.9999m 
 -324.67475m   88.5567n  699.9999m 
 -324.57475m   88.5081n  699.9999m 
 -324.47475m   88.4596n  699.9999m 
 -324.37475m   88.4111n  699.9999m 
 -324.27475m   88.3626n  699.9999m 
 -324.17475m   88.3141n  699.9999m 
 -324.07475m   88.2657n  699.9999m 
 -323.97475m   88.2172n  699.9999m 
 -323.87475m   88.1688n  699.9999m 
 -323.77475m   88.1204n  699.9999m 
 -323.67475m   88.0719n  699.9999m 
 -323.57475m   88.0235n  699.9999m 
 -323.47475m   87.9752n  699.9999m 
 -323.37475m   87.9268n  699.9999m 
 -323.27475m   87.8785n  699.9999m 
 -323.17475m   87.8301n  699.9999m 
 -323.07475m   87.7818n  699.9999m 
 -322.97475m   87.7335n  699.9999m 
 -322.87475m   87.6852n  699.9999m 
 -322.77475m   87.6369n  699.9999m 
 -322.67475m   87.5887n  699.9999m 
 -322.57475m   87.5404n  699.9999m 
 -322.47475m   87.4922n  699.9999m 
 -322.37475m   87.4439n  699.9999m 
 -322.27475m   87.3957n  699.9999m 
 -322.17475m   87.3475n  699.9999m 
 -322.07475m   87.2994n  699.9999m 
 -321.97475m   87.2512n  699.9999m 
 -321.87475m   87.2031n  699.9999m 
 -321.77475m   87.1549n  699.9999m 
 -321.67475m   87.1068n  699.9999m 
 -321.57475m   87.0587n  699.9999m 
 -321.47475m   87.0106n  699.9999m 
 -321.37475m   86.9625n  699.9999m 
 -321.27475m   86.9145n  699.9999m 
 -321.17475m   86.8664n  699.9999m 
 -321.07475m   86.8184n  699.9999m 
 -320.97475m   86.7704n  699.9999m 
 -320.87475m   86.7224n  699.9999m 
 -320.77475m   86.6744n  699.9999m 
 -320.67475m   86.6264n  699.9999m 
 -320.57475m   86.5784n  699.9999m 
 -320.47475m   86.5305n  699.9999m 
 -320.37475m   86.4825n  699.9999m 
 -320.27475m   86.4346n  699.9999m 
 -320.17475m   86.3867n  699.9999m 
 -320.07475m   86.3388n  699.9999m 
 -319.97475m   86.2909n  699.9999m 
 -319.87475m   86.2431n  699.9999m 
 -319.77475m   86.1952n  699.9999m 
 -319.67475m   86.1474n  699.9999m 
 -319.57475m   86.0996n  699.9999m 
 -319.47475m   86.0518n  699.9999m 
 -319.37475m   86.0040n  699.9999m 
 -319.27475m   85.9562n  699.9999m 
 -319.17475m   85.9084n  699.9999m 
 -319.07475m   85.8607n  699.9999m 
 -318.97475m   85.8129n  699.9999m 
 -318.87475m   85.7652n  699.9999m 
 -318.77475m   85.7175n  699.9999m 
 -318.67475m   85.6698n  699.9999m 
 -318.57475m   85.6221n  699.9999m 
 -318.47475m   85.5744n  699.9999m 
 -318.37475m   85.5268n  699.9999m 
 -318.27475m   85.4792n  699.9999m 
 -318.17475m   85.4315n  699.9999m 
 -318.07475m   85.3839n  699.9999m 
 -317.97475m   85.3363n  699.9999m 
 -317.87475m   85.2887n  699.9999m 
 -317.77475m   85.2412n  699.9999m 
 -317.67475m   85.1936n  699.9999m 
 -317.57475m   85.1461n  699.9999m 
 -317.47475m   85.0985n  699.9999m 
 -317.37475m   85.0510n  699.9999m 
 -317.27475m   85.0035n  699.9999m 
 -317.17475m   84.9560n  699.9999m 
 -317.07475m   84.9086n  699.9999m 
 -316.97475m   84.8611n  699.9999m 
 -316.87475m   84.8137n  699.9999m 
 -316.77475m   84.7662n  699.9999m 
 -316.67475m   84.7188n  699.9999m 
 -316.57475m   84.6714n  699.9999m 
 -316.47475m   84.6240n  699.9999m 
 -316.37475m   84.5766n  699.9999m 
 -316.27475m   84.5293n  699.9999m 
 -316.17475m   84.4819n  699.9999m 
 -316.07475m   84.4346n  699.9999m 
 -315.97475m   84.3873n  699.9999m 
 -315.87475m   84.3400n  699.9999m 
 -315.77475m   84.2927n  699.9999m 
 -315.67475m   84.2454n  699.9999m 
 -315.57475m   84.1981n  699.9999m 
 -315.47475m   84.1509n  699.9999m 
 -315.37475m   84.1037n  699.9999m 
 -315.27475m   84.0564n  699.9999m 
 -315.17475m   84.0092n  699.9999m 
 -315.07475m   83.9620n  699.9999m 
 -314.97475m   83.9148n  699.9999m 
 -314.87475m   83.8677n  699.9999m 
 -314.77475m   83.8205n  699.9999m 
 -314.67475m   83.7734n  699.9999m 
 -314.57475m   83.7262n  699.9999m 
 -314.47475m   83.6791n  699.9999m 
 -314.37475m   83.6320n  699.9999m 
 -314.27475m   83.5849n  699.9999m 
 -314.17475m   83.5379n  699.9999m 
 -314.07475m   83.4908n  699.9999m 
 -313.97475m   83.4437n  699.9999m 
 -313.87475m   83.3967n  699.9999m 
 -313.77475m   83.3497n  699.9999m 
 -313.67475m   83.3027n  699.9999m 
 -313.57475m   83.2557n  699.9999m 
 -313.47475m   83.2087n  699.9999m 
 -313.37475m   83.1617n  699.9999m 
 -313.27475m   83.1148n  699.9999m 
 -313.17475m   83.0679n  699.9999m 
 -313.07475m   83.0209n  699.9999m 
 -312.97475m   82.9740n  699.9999m 
 -312.87475m   82.9271n  699.9999m 
 -312.77475m   82.8802n  699.9999m 
 -312.67475m   82.8334n  699.9999m 
 -312.57475m   82.7865n  699.9999m 
 -312.47475m   82.7397n  699.9999m 
 -312.37475m   82.6928n  699.9999m 
 -312.27475m   82.6460n  699.9999m 
 -312.17475m   82.5992n  699.9999m 
 -312.07475m   82.5524n  699.9999m 
 -311.97475m   82.5056n  699.9999m 
 -311.87475m   82.4589n  699.9999m 
 -311.77475m   82.4121n  699.9999m 
 -311.67475m   82.3654n  699.9999m 
 -311.57475m   82.3187n  699.9999m 
 -311.47475m   82.2719n  699.9999m 
 -311.37475m   82.2253n  699.9999m 
 -311.27475m   82.1786n  699.9999m 
 -311.17475m   82.1319n  699.9999m 
 -311.07475m   82.0852n  699.9999m 
 -310.97475m   82.0386n  699.9999m 
 -310.87475m   81.9920n  699.9999m 
 -310.77475m   81.9453n  699.9999m 
 -310.67475m   81.8987n  699.9999m 
 -310.57475m   81.8521n  699.9999m 
 -310.47475m   81.8056n  699.9999m 
 -310.37475m   81.7590n  699.9999m 
 -310.27475m   81.7125n  699.9999m 
 -310.17475m   81.6659n  699.9999m 
 -310.07475m   81.6194n  699.9999m 
 -309.97475m   81.5729n  699.9999m 
 -309.87475m   81.5264n  699.9999m 
 -309.77475m   81.4799n  699.9999m 
 -309.67475m   81.4334n  699.9999m 
 -309.57475m   81.3870n  699.9999m 
 -309.47475m   81.3405n  699.9999m 
 -309.37475m   81.2941n  699.9999m 
 -309.27475m   81.2477n  699.9999m 
 -309.17475m   81.2013n  699.9999m 
 -309.07475m   81.1549n  699.9999m 
 -308.97475m   81.1085n  699.9999m 
 -308.87475m   81.0621n  699.9999m 
 -308.77475m   81.0158n  699.9999m 
 -308.67475m   80.9694n  699.9999m 
 -308.57475m   80.9231n  699.9999m 
 -308.47475m   80.8768n  699.9999m 
 -308.37475m   80.8305n  699.9999m 
 -308.27475m   80.7842n  699.9999m 
 -308.17475m   80.7379n  699.9999m 
 -308.07475m   80.6916n  699.9999m 
 -307.97475m   80.6454n  699.9999m 
 -307.87475m   80.5992n  699.9999m 
 -307.77475m   80.5529n  699.9999m 
 -307.67475m   80.5067n  699.9999m 
 -307.57475m   80.4605n  699.9999m 
 -307.47475m   80.4143n  699.9999m 
 -307.37475m   80.3682n  699.9999m 
 -307.27475m   80.3220n  699.9999m 
 -307.17475m   80.2759n  699.9999m 
 -307.07475m   80.2297n  699.9999m 
 -306.97475m   80.1836n  699.9999m 
 -306.87475m   80.1375n  699.9999m 
 -306.77475m   80.0914n  699.9999m 
 -306.67475m   80.0453n  699.9999m 
 -306.57475m   79.9993n  699.9999m 
 -306.47475m   79.9532n  699.9999m 
 -306.37475m   79.9072n  699.9999m 
 -306.27475m   79.8611n  699.9999m 
 -306.17475m   79.8151n  699.9999m 
 -306.07475m   79.7691n  699.9999m 
 -305.97475m   79.7231n  699.9999m 
 -305.87475m   79.6771n  699.9999m 
 -305.77475m   79.6312n  699.9999m 
 -305.67475m   79.5852n  699.9999m 
 -305.57475m   79.5393n  699.9999m 
 -305.47475m   79.4934n  699.9999m 
 -305.37475m   79.4475n  699.9999m 
 -305.27475m   79.4016n  699.9999m 
 -305.17475m   79.3557n  699.9999m 
 -305.07475m   79.3098n  699.9999m 
 -304.97475m   79.2639n  699.9999m 
 -304.87475m   79.2181n  699.9999m 
 -304.77475m   79.1722n  699.9999m 
 -304.67475m   79.1264n  699.9999m 
 -304.57475m   79.0806n  699.9999m 
 -304.47475m   79.0348n  699.9999m 
 -304.37475m   78.9890n  699.9999m 
 -304.27475m   78.9432n  699.9999m 
 -304.17475m   78.8975n  699.9999m 
 -304.07475m   78.8517n  699.9999m 
 -303.97475m   78.8060n  699.9999m 
 -303.87475m   78.7603n  699.9999m 
 -303.77475m   78.7146n  699.9999m 
 -303.67475m   78.6689n  699.9999m 
 -303.57475m   78.6232n  699.9999m 
 -303.47475m   78.5775n  699.9999m 
 -303.37475m   78.5319n  699.9999m 
 -303.27475m   78.4862n  699.9999m 
 -303.17475m   78.4406n  699.9999m 
 -303.07475m   78.3950n  699.9999m 
 -302.97475m   78.3493n  699.9999m 
 -302.87475m   78.3037n  699.9999m 
 -302.77475m   78.2582n  699.9999m 
 -302.67475m   78.2126n  699.9999m 
 -302.57475m   78.1670n  699.9999m 
 -302.47475m   78.1215n  699.9999m 
 -302.37475m   78.0760n  699.9999m 
 -302.27475m   78.0304n  699.9999m 
 -302.17475m   77.9849n  699.9999m 
 -302.07475m   77.9394n  699.9999m 
 -301.97475m   77.8939n  699.9999m 
 -301.87475m   77.8485n  699.9999m 
 -301.77475m   77.8030n  699.9999m 
 -301.67475m   77.7576n  699.9999m 
 -301.57475m   77.7121n  699.9999m 
 -301.47475m   77.6667n  699.9999m 
 -301.37475m   77.6213n  699.9999m 
 -301.27475m   77.5759n  699.9999m 
 -301.17475m   77.5305n  699.9999m 
 -301.07475m   77.4852n  699.9999m 
 -300.97475m   77.4398n  699.9999m 
 -300.87475m   77.3945n  699.9999m 
 -300.77475m   77.3491n  699.9999m 
 -300.67475m   77.3038n  699.9999m 
 -300.57475m   77.2585n  699.9999m 
 -300.47475m   77.2132n  699.9999m 
 -300.37475m   77.1679n  699.9999m 
 -300.27475m   77.1227n  699.9999m 
 -300.17475m   77.0774n  699.9999m 
 -300.07475m   77.0321n  699.9999m 
 -299.97475m   76.9869n  699.9999m 
 -299.87475m   76.9417n  699.9999m 
 -299.77475m   76.8965n  699.9999m 
 -299.67475m   76.8513n  699.9999m 
 -299.57475m   76.8061n  699.9999m 
 -299.47475m   76.7609n  699.9999m 
 -299.37475m   76.7158n  699.9999m 
 -299.27475m   76.6706n  699.9999m 
 -299.17475m   76.6255n  699.9999m 
 -299.07475m   76.5804n  699.9999m 
 -298.97475m   76.5353n  699.9999m 
 -298.87475m   76.4902n  699.9999m 
 -298.77475m   76.4451n  699.9999m 
 -298.67475m   76.4000n  699.9999m 
 -298.57475m   76.3549n  699.9999m 
 -298.47475m   76.3099n  699.9999m 
 -298.37475m   76.2649n  699.9999m 
 -298.27475m   76.2198n  699.9999m 
 -298.17475m   76.1748n  699.9999m 
 -298.07475m   76.1298n  699.9999m 
 -297.97475m   76.0848n  699.9999m 
 -297.87475m   76.0399n  699.9999m 
 -297.77475m   75.9949n  699.9999m 
 -297.67475m   75.9499n  699.9999m 
 -297.57475m   75.9050n  699.9999m 
 -297.47475m   75.8601n  699.9999m 
 -297.37475m   75.8152n  699.9999m 
 -297.27475m   75.7703n  699.9999m 
 -297.17475m   75.7254n  699.9999m 
 -297.07475m   75.6805n  699.9999m 
 -296.97475m   75.6356n  699.9999m 
 -296.87475m   75.5908n  699.9999m 
 -296.77475m   75.5459n  699.9999m 
 -296.67475m   75.5011n  699.9999m 
 -296.57475m   75.4563n  699.9999m 
 -296.47475m   75.4115n  699.9999m 
 -296.37475m   75.3667n  699.9999m 
 -296.27475m   75.3219n  699.9999m 
 -296.17475m   75.2771n  699.9999m 
 -296.07475m   75.2324n  699.9999m 
 -295.97475m   75.1876n  699.9999m 
 -295.87475m   75.1429n  699.9999m 
 -295.77475m   75.0982n  699.9999m 
 -295.67475m   75.0535n  699.9999m 
 -295.57475m   75.0088n  699.9999m 
 -295.47475m   74.9641n  699.9999m 
 -295.37475m   74.9194n  699.9999m 
 -295.27475m   74.8748n  699.9999m 
 -295.17475m   74.8301n  699.9999m 
 -295.07475m   74.7855n  699.9999m 
 -294.97475m   74.7409n  699.9999m 
 -294.87475m   74.6962n  699.9999m 
 -294.77475m   74.6516n  699.9999m 
 -294.67475m   74.6071n  699.9999m 
 -294.57475m   74.5625n  699.9999m 
 -294.47475m   74.5179n  699.9999m 
 -294.37475m   74.4734n  699.9999m 
 -294.27475m   74.4288n  699.9999m 
 -294.17475m   74.3843n  699.9999m 
 -294.07475m   74.3398n  699.9999m 
 -293.97475m   74.2953n  699.9999m 
 -293.87475m   74.2508n  699.9999m 
 -293.77475m   74.2063n  699.9999m 
 -293.67475m   74.1618n  699.9999m 
 -293.57475m   74.1174n  699.9999m 
 -293.47475m   74.0729n  699.9999m 
 -293.37475m   74.0285n  699.9999m 
 -293.27475m   73.9841n  699.9999m 
 -293.17475m   73.9397n  699.9999m 
 -293.07475m   73.8953n  699.9999m 
 -292.97475m   73.8509n  699.9999m 
 -292.87475m   73.8065n  699.9999m 
 -292.77475m   73.7622n  699.9999m 
 -292.67475m   73.7178n  699.9999m 
 -292.57475m   73.6735n  699.9999m 
 -292.47475m   73.6291n  699.9999m 
 -292.37475m   73.5848n  699.9999m 
 -292.27475m   73.5405n  699.9999m 
 -292.17475m   73.4962n  699.9999m 
 -292.07475m   73.4520n  699.9999m 
 -291.97475m   73.4077n  699.9999m 
 -291.87475m   73.3634n  699.9999m 
 -291.77475m   73.3192n  699.9999m 
 -291.67475m   73.2750n  699.9999m 
 -291.57475m   73.2307n  699.9999m 
 -291.47475m   73.1865n  699.9999m 
 -291.37475m   73.1423n  699.9999m 
 -291.27475m   73.0982n  699.9999m 
 -291.17475m   73.0540n  699.9999m 
 -291.07475m   73.0098n  699.9999m 
 -290.97475m   72.9657n  699.9999m 
 -290.87475m   72.9215n  699.9999m 
 -290.77475m   72.8774n  699.9999m 
 -290.67475m   72.8333n  699.9999m 
 -290.57475m   72.7892n  699.9999m 
 -290.47475m   72.7451n  699.9999m 
 -290.37475m   72.7010n  699.9999m 
 -290.27475m   72.6570n  699.9999m 
 -290.17475m   72.6129n  699.9999m 
 -290.07475m   72.5689n  699.9999m 
 -289.97475m   72.5248n  699.9999m 
 -289.87475m   72.4808n  699.9999m 
 -289.77475m   72.4368n  699.9999m 
 -289.67475m   72.3928n  699.9999m 
 -289.57475m   72.3488n  699.9999m 
 -289.47475m   72.3048n  699.9999m 
 -289.37475m   72.2609n  699.9999m 
 -289.27475m   72.2169n  699.9999m 
 -289.17475m   72.1730n  699.9999m 
 -289.07475m   72.1291n  699.9999m 
 -288.97475m   72.0851n  699.9999m 
 -288.87475m   72.0412n  699.9999m 
 -288.77475m   71.9974n  699.9999m 
 -288.67475m   71.9535n  699.9999m 
 -288.57475m   71.9096n  699.9999m 
 -288.47475m   71.8657n  699.9999m 
 -288.37475m   71.8219n  699.9999m 
 -288.27475m   71.7781n  699.9999m 
 -288.17475m   71.7342n  699.9999m 
 -288.07475m   71.6904n  699.9999m 
 -287.97475m   71.6466n  699.9999m 
 -287.87475m   71.6028n  699.9999m 
 -287.77475m   71.5591n  699.9999m 
 -287.67475m   71.5153n  699.9999m 
 -287.57475m   71.4716n  699.9999m 
 -287.47475m   71.4278n  699.9999m 
 -287.37475m   71.3841n  699.9999m 
 -287.27475m   71.3404n  699.9999m 
 -287.17475m   71.2967n  699.9999m 
 -287.07475m   71.2530n  699.9999m 
 -286.97475m   71.2093n  699.9999m 
 -286.87475m   71.1656n  699.9999m 
 -286.77475m   71.1219n  699.9999m 
 -286.67475m   71.0783n  699.9999m 
 -286.57475m   71.0347n  699.9999m 
 -286.47475m   70.9910n  699.9999m 
 -286.37475m   70.9474n  699.9999m 
 -286.27475m   70.9038n  699.9999m 
 -286.17475m   70.8602n  699.9999m 
 -286.07475m   70.8166n  699.9999m 
 -285.97475m   70.7731n  699.9999m 
 -285.87475m   70.7295n  699.9999m 
 -285.77475m   70.6860n  699.9999m 
 -285.67475m   70.6424n  699.9999m 
 -285.57475m   70.5989n  699.9999m 
 -285.47475m   70.5554n  699.9999m 
 -285.37475m   70.5119n  699.9999m 
 -285.27475m   70.4684n  699.9999m 
 -285.17475m   70.4249n  699.9999m 
 -285.07475m   70.3814n  699.9999m 
 -284.97475m   70.3380n  699.9999m 
 -284.87475m   70.2945n  699.9999m 
 -284.77475m   70.2511n  699.9999m 
 -284.67475m   70.2077n  699.9999m 
 -284.57475m   70.1643n  699.9999m 
 -284.47475m   70.1209n  699.9999m 
 -284.37475m   70.0775n  699.9999m 
 -284.27475m   70.0341n  699.9999m 
 -284.17475m   69.9908n  699.9999m 
 -284.07475m   69.9474n  699.9999m 
 -283.97475m   69.9041n  699.9999m 
 -283.87475m   69.8607n  699.9999m 
 -283.77475m   69.8174n  699.9999m 
 -283.67475m   69.7741n  699.9999m 
 -283.57475m   69.7308n  699.9999m 
 -283.47475m   69.6875n  699.9999m 
 -283.37475m   69.6442n  699.9999m 
 -283.27475m   69.6010n  699.9999m 
 -283.17475m   69.5577n  699.9999m 
 -283.07475m   69.5145n  699.9999m 
 -282.97475m   69.4713n  699.9999m 
 -282.87475m   69.4280n  699.9999m 
 -282.77475m   69.3848n  699.9999m 
 -282.67475m   69.3416n  699.9999m 
 -282.57475m   69.2984n  699.9999m 
 -282.47475m   69.2553n  699.9999m 
 -282.37475m   69.2121n  699.9999m 
 -282.27475m   69.1690n  699.9999m 
 -282.17475m   69.1258n  699.9999m 
 -282.07475m   69.0827n  699.9999m 
 -281.97475m   69.0396n  699.9999m 
 -281.87475m   68.9965n  699.9999m 
 -281.77475m   68.9534n  699.9999m 
 -281.67475m   68.9103n  699.9999m 
 -281.57475m   68.8672n  699.9999m 
 -281.47475m   68.8242n  699.9999m 
 -281.37475m   68.7811n  699.9999m 
 -281.27475m   68.7381n  699.9999m 
 -281.17475m   68.6950n  699.9999m 
 -281.07475m   68.6520n  699.9999m 
 -280.97475m   68.6090n  699.9999m 
 -280.87475m   68.5660n  699.9999m 
 -280.77475m   68.5230n  699.9999m 
 -280.67475m   68.4801n  699.9999m 
 -280.57475m   68.4371n  699.9999m 
 -280.47475m   68.3942n  699.9999m 
 -280.37475m   68.3512n  699.9999m 
 -280.27475m   68.3083n  699.9999m 
 -280.17475m   68.2654n  699.9999m 
 -280.07475m   68.2225n  699.9999m 
 -279.97475m   68.1796n  699.9999m 
 -279.87475m   68.1367n  699.9999m 
 -279.77475m   68.0938n  699.9999m 
 -279.67475m   68.0510n  699.9999m 
 -279.57475m   68.0081n  699.9999m 
 -279.47475m   67.9653n  699.9999m 
 -279.37475m   67.9224n  699.9999m 
 -279.27475m   67.8796n  699.9999m 
 -279.17475m   67.8368n  699.9999m 
 -279.07475m   67.7940n  699.9999m 
 -278.97475m   67.7512n  699.9999m 
 -278.87475m   67.7085n  699.9999m 
 -278.77475m   67.6657n  699.9999m 
 -278.67475m   67.6229n  699.9999m 
 -278.57475m   67.5802n  699.9999m 
 -278.47475m   67.5375n  699.9999m 
 -278.37475m   67.4948n  699.9999m 
 -278.27475m   67.4521n  699.9999m 
 -278.17475m   67.4094n  699.9999m 
 -278.07475m   67.3667n  699.9999m 
 -277.97475m   67.3240n  699.9999m 
 -277.87475m   67.2813n  699.9999m 
 -277.77475m   67.2387n  699.9999m 
 -277.67475m   67.1960n  699.9999m 
[...]
  453.22525m  699.9999m  168.6453n 
  453.32525m  699.9999m  168.7275n 
  453.42525m  699.9999m  168.8097n 
  453.52525m  699.9999m  168.8920n 
  453.62525m  699.9999m  168.9744n 
  453.72525m  699.9999m  169.0567n 
  453.82525m  699.9999m  169.1392n 
  453.92525m  699.9999m  169.2216n 
  454.02525m  699.9999m  169.3042n 
  454.12525m  699.9999m  169.3867n 
  454.22525m  699.9999m  169.4693n 
  454.32525m  699.9999m  169.5520n 
  454.42525m  699.9999m  169.6347n 
  454.52525m  699.9999m  169.7174n 
  454.62525m  699.9999m  169.8002n 
  454.72525m  699.9999m  169.8830n 
  454.82525m  699.9999m  169.9659n 
  454.92525m  699.9999m  170.0488n 
  455.02525m  699.9999m  170.1318n 
  455.12525m  699.9999m  170.2148n 
  455.22525m  699.9999m  170.2979n 
  455.32525m  699.9999m  170.3810n 
  455.42525m  699.9999m  170.4641n 
  455.52525m  699.9999m  170.5473n 
  455.62525m  699.9999m  170.6305n 
  455.72525m  699.9999m  170.7138n 
  455.82525m  699.9999m  170.7971n 
  455.92525m  699.9999m  170.8805n 
  456.02525m  699.9999m  170.9639n 
  456.12525m  699.9999m  171.0474n 
  456.22525m  699.9999m  171.1309n 
  456.32525m  699.9999m  171.2144n 
  456.42525m  699.9999m  171.2980n 
  456.52525m  699.9999m  171.3816n 
  456.62525m  699.9999m  171.4653n 
  456.72525m  699.9999m  171.5491n 
  456.82525m  699.9999m  171.6328n 
  456.92525m  699.9999m  171.7166n 
  457.02525m  699.9999m  171.8005n 
  457.12525m  699.9999m  171.8844n 
  457.22525m  699.9999m  171.9684n 
  457.32525m  699.9999m  172.0524n 
  457.42525m  699.9999m  172.1364n 
  457.52525m  699.9999m  172.2205n 
  457.62525m  699.9999m  172.3047n 
  457.72525m  699.9999m  172.3889n 
  457.82525m  699.9999m  172.4731n 
  457.92525m  699.9999m  172.5574n 
  458.02525m  699.9999m  172.6417n 
  458.12525m  699.9999m  172.7261n 
  458.22525m  699.9999m  172.8105n 
  458.32525m  699.9999m  172.8949n 
  458.42525m  699.9999m  172.9794n 
  458.52525m  699.9999m  173.0640n 
  458.62525m  699.9999m  173.1486n 
  458.72525m  699.9999m  173.2332n 
  458.82525m  699.9999m  173.3179n 
  458.92525m  699.9999m  173.4027n 
  459.02525m  699.9999m  173.4875n 
  459.12525m  699.9999m  173.5723n 
  459.22525m  699.9999m  173.6572n 
  459.32525m  699.9999m  173.7421n 
  459.42525m  699.9999m  173.8271n 
  459.52525m  699.9999m  173.9121n 
  459.62525m  699.9999m  173.9971n 
  459.72525m  699.9999m  174.0823n 
  459.82525m  699.9999m  174.1674n 
  459.92525m  699.9999m  174.2526n 
  460.02525m  699.9999m  174.3379n 
  460.12525m  699.9999m  174.4232n 
  460.22525m  699.9999m  174.5085n 
  460.32525m  699.9999m  174.5939n 
  460.42525m  699.9999m  174.6794n 
  460.52525m  699.9999m  174.7648n 
  460.62525m  699.9999m  174.8504n 
  460.72525m  699.9999m  174.9360n 
  460.82525m  699.9999m  175.0216n 
  460.92525m  699.9999m  175.1073n 
  461.02525m  699.9999m  175.1930n 
  461.12525m  699.9999m  175.2787n 
  461.22525m  699.9999m  175.3646n 
  461.32525m  699.9999m  175.4504n 
  461.42525m  699.9999m  175.5363n 
  461.52525m  699.9999m  175.6223n 
  461.62525m  699.9999m  175.7083n 
  461.72525m  699.9999m  175.7944n 
  461.82525m  699.9999m  175.8805n 
  461.92525m  699.9999m  175.9666n 
  462.02525m  699.9999m  176.0528n 
  462.12525m  699.9999m  176.1391n 
  462.22525m  699.9999m  176.2253n 
  462.32525m  699.9999m  176.3117n 
  462.42525m  699.9999m  176.3981n 
  462.52525m  699.9999m  176.4845n 
  462.62525m  699.9999m  176.5710n 
  462.72525m  699.9999m  176.6575n 
  462.82525m  699.9999m  176.7441n 
  462.92525m  699.9999m  176.8307n 
  463.02525m  699.9999m  176.9174n 
  463.12525m  699.9999m  177.0041n 
  463.22525m  699.9999m  177.0909n 
  463.32525m  699.9999m  177.1777n 
  463.42525m  699.9999m  177.2646n 
  463.52525m  699.9999m  177.3515n 
  463.62525m  699.9999m  177.4385n 
  463.72525m  699.9999m  177.5255n 
  463.82525m  699.9999m  177.6126n 
  463.92525m  699.9999m  177.6997n 
  464.02525m  699.9999m  177.7868n 
  464.12525m  699.9999m  177.8741n 
  464.22525m  699.9999m  177.9613n 
  464.32525m  699.9999m  178.0486n 
  464.42525m  699.9999m  178.1360n 
  464.52525m  699.9999m  178.2234n 
  464.62525m  699.9999m  178.3108n 
  464.72525m  699.9999m  178.3983n 
  464.82525m  699.9999m  178.4859n 
  464.92525m  699.9999m  178.5735n 
  465.02525m  699.9999m  178.6611n 
  465.12525m  699.9999m  178.7488n 
  465.22525m  699.9999m  178.8366n 
  465.32525m  699.9999m  178.9244n 
  465.42525m  699.9999m  179.0122n 
  465.52525m  699.9999m  179.1001n 
  465.62525m  699.9999m  179.1881n 
  465.72525m  699.9999m  179.2761n 
  465.82525m  699.9999m  179.3641n 
  465.92525m  699.9999m  179.4522n 
  466.02525m  699.9999m  179.5403n 
  466.12525m  699.9999m  179.6285n 
  466.22525m  699.9999m  179.7168n 
  466.32525m  699.9999m  179.8051n 
  466.42525m  699.9999m  179.8934n 
  466.52525m  699.9999m  179.9818n 
  466.62525m  699.9999m  180.0702n 
  466.72525m  699.9999m  180.1587n 
  466.82525m  699.9999m  180.2473n 
  466.92525m  699.9999m  180.3358n 
  467.02525m  699.9999m  180.4245n 
  467.12525m  699.9999m  180.5132n 
  467.22525m  699.9999m  180.6019n 
  467.32525m  699.9999m  180.6907n 
  467.42525m  699.9999m  180.7796n 
  467.52525m  699.9999m  180.8684n 
  467.62525m  699.9999m  180.9574n 
  467.72525m  699.9999m  181.0464n 
  467.82525m  699.9999m  181.1354n 
  467.92525m  699.9999m  181.2245n 
  468.02525m  699.9999m  181.3136n 
  468.12525m  699.9999m  181.4028n 
  468.22525m  699.9999m  181.4921n 
  468.32525m  699.9999m  181.5814n 
  468.42525m  699.9999m  181.6707n 
  468.52525m  699.9999m  181.7601n 
  468.62525m  699.9999m  181.8496n 
  468.72525m  699.9999m  181.9391n 
  468.82525m  699.9999m  182.0286n 
  468.92525m  699.9999m  182.1182n 
  469.02525m  699.9999m  182.2079n 
  469.12525m  699.9999m  182.2976n 
  469.22525m  699.9999m  182.3873n 
  469.32525m  699.9999m  182.4771n 
  469.42525m  699.9999m  182.5670n 
  469.52525m  699.9999m  182.6569n 
  469.62525m  699.9999m  182.7468n 
  469.72525m  699.9999m  182.8368n 
  469.82525m  699.9999m  182.9269n 
  469.92525m  699.9999m  183.0170n 
  470.02525m  699.9999m  183.1072n 
  470.12525m  699.9999m  183.1974n 
  470.22525m  699.9999m  183.2876n 
  470.32525m  699.9999m  183.3780n 
  470.42525m  699.9999m  183.4683n 
  470.52525m  699.9999m  183.5587n 
  470.62525m  699.9999m  183.6492n 
  470.72525m  699.9999m  183.7397n 
  470.82525m  699.9999m  183.8303n 
  470.92525m  699.9999m  183.9209n 
  471.02525m  699.9999m  184.0116n 
  471.12525m  699.9999m  184.1024n 
  471.22525m  699.9999m  184.1931n 
  471.32525m  699.9999m  184.2840n 
  471.42525m  699.9999m  184.3749n 
  471.52525m  699.9999m  184.4658n 
  471.62525m  699.9999m  184.5568n 
  471.72525m  699.9999m  184.6478n 
  471.82525m  699.9999m  184.7389n 
  471.92525m  699.9999m  184.8301n 
  472.02525m  699.9999m  184.9213n 
  472.12525m  699.9999m  185.0125n 
  472.22525m  699.9999m  185.1038n 
  472.32525m  699.9999m  185.1952n 
  472.42525m  699.9999m  185.2866n 
  472.52525m  699.9999m  185.3781n 
  472.62525m  699.9999m  185.4696n 
  472.72525m  699.9999m  185.5611n 
  472.82525m  699.9999m  185.6528n 
  472.92525m  699.9999m  185.7444n 
  473.02525m  699.9999m  185.8362n 
  473.12525m  699.9999m  185.9279n 
  473.22525m  699.9999m  186.0198n 
  473.32525m  699.9999m  186.1117n 
  473.42525m  699.9999m  186.2036n 
  473.52525m  699.9999m  186.2956n 
  473.62525m  699.9999m  186.3876n 
  473.72525m  699.9999m  186.4797n 
  473.82525m  699.9999m  186.5719n 
  473.92525m  699.9999m  186.6641n 
  474.02525m  699.9999m  186.7563n 
  474.12525m  699.9999m  186.8487n 
  474.22525m  699.9999m  186.9410n 
  474.32525m  699.9999m  187.0334n 
  474.42525m  699.9999m  187.1259n 
  474.52525m  699.9999m  187.2184n 
  474.62525m  699.9999m  187.3110n 
  474.72525m  699.9999m  187.4037n 
  474.82525m  699.9999m  187.4963n 
  474.92525m  699.9999m  187.5891n 
  475.02525m  699.9999m  187.6819n 
  475.12525m  699.9999m  187.7747n 
  475.22525m  699.9999m  187.8676n 
  475.32525m  699.9999m  187.9606n 
  475.42525m  699.9999m  188.0536n 
  475.52525m  699.9999m  188.1467n 
  475.62525m  699.9999m  188.2398n 
  475.72525m  699.9999m  188.3329n 
  475.82525m  699.9999m  188.4262n 
  475.92525m  699.9999m  188.5195n 
  476.02525m  699.9999m  188.6128n 
  476.12525m  699.9999m  188.7062n 
  476.22525m  699.9999m  188.7996n 
  476.32525m  699.9999m  188.8931n 
  476.42525m  699.9999m  188.9867n 
  476.52525m  699.9999m  189.0803n 
  476.62525m  699.9999m  189.1740n 
  476.72525m  699.9999m  189.2677n 
  476.82525m  699.9999m  189.3615n 
  476.92525m  699.9999m  189.4553n 
  477.02525m  699.9999m  189.5492n 
  477.12525m  699.9999m  189.6431n 
  477.22525m  699.9999m  189.7371n 
  477.32525m  699.9999m  189.8311n 
  477.42525m  699.9999m  189.9252n 
  477.52525m  699.9999m  190.0194n 
  477.62525m  699.9999m  190.1136n 
  477.72525m  699.9999m  190.2079n 
  477.82525m  699.9999m  190.3022n 
  477.92525m  699.9999m  190.3966n 
  478.02525m  699.9999m  190.4910n 
  478.12525m  699.9999m  190.5855n 
  478.22525m  699.9999m  190.6801n 
  478.32525m  699.9999m  190.7747n 
  478.42525m  699.9999m  190.8693n 
  478.52525m  699.9999m  190.9640n 
  478.62525m  699.9999m  191.0588n 
  478.72525m  699.9999m  191.1536n 
  478.82525m  699.9999m  191.2485n 
  478.92525m  699.9999m  191.3434n 
  479.02525m  699.9999m  191.4384n 
  479.12525m  699.9999m  191.5335n 
  479.22525m  699.9999m  191.6286n 
  479.32525m  699.9999m  191.7237n 
  479.42525m  699.9999m  191.8190n 
  479.52525m  699.9999m  191.9142n 
  479.62525m  699.9999m  192.0096n 
  479.72525m  699.9999m  192.1050n 
  479.82525m  699.9999m  192.2004n 
  479.92525m  699.9999m  192.2959n 
  480.02525m  699.9999m  192.3914n 
  480.12525m  699.9999m  192.4871n 
  480.22525m  699.9999m  192.5827n 
  480.32525m  699.9999m  192.6785n 
  480.42525m  699.9999m  192.7742n 
  480.52525m  699.9999m  192.8701n 
  480.62525m  699.9999m  192.9660n 
  480.72525m  699.9999m  193.0619n 
  480.82525m  699.9999m  193.1579n 
  480.92525m  699.9999m  193.2540n 
  481.02525m  699.9999m  193.3501n 
  481.12525m  699.9999m  193.4463n 
  481.22525m  699.9999m  193.5425n 
  481.32525m  699.9999m  193.6388n 
  481.42525m  699.9999m  193.7352n 
  481.52525m  699.9999m  193.8316n 
  481.62525m  699.9999m  193.9281n 
  481.72525m  699.9999m  194.0246n 
  481.82525m  699.9999m  194.1212n 
  481.92525m  699.9999m  194.2178n 
  482.02525m  699.9999m  194.3145n 
  482.12525m  699.9999m  194.4112n 
  482.22525m  699.9999m  194.5081n 
  482.32525m  699.9999m  194.6049n 
  482.42525m  699.9999m  194.7019n 
  482.52525m  699.9999m  194.7988n 
  482.62525m  699.9999m  194.8959n 
  482.72525m  699.9999m  194.9930n 
  482.82525m  699.9999m  195.0901n 
  482.92525m  699.9999m  195.1874n 
  483.02525m  699.9999m  195.2846n 
  483.12525m  699.9999m  195.3820n 
  483.22525m  699.9999m  195.4794n 
  483.32525m  699.9999m  195.5768n 
  483.42525m  699.9999m  195.6743n 
  483.52525m  699.9999m  195.7719n 
  483.62525m  699.9999m  195.8695n 
  483.72525m  699.9999m  195.9672n 
  483.82525m  699.9999m  196.0649n 
  483.92525m  699.9999m  196.1627n 
  484.02525m  699.9999m  196.2606n 
  484.12525m  699.9999m  196.3585n 
  484.22525m  699.9999m  196.4565n 
  484.32525m  699.9999m  196.5545n 
  484.42525m  699.9999m  196.6526n 
  484.52525m  699.9999m  196.7508n 
  484.62525m  699.9999m  196.8490n 
  484.72525m  699.9999m  196.9472n 
  484.82525m  699.9999m  197.0456n 
  484.92525m  699.9999m  197.1440n 
  485.02525m  699.9999m  197.2424n 
  485.12525m  699.9999m  197.3409n 
  485.22525m  699.9999m  197.4395n 
  485.32525m  699.9999m  197.5381n 
  485.42525m  699.9999m  197.6368n 
  485.52525m  699.9999m  197.7355n 
  485.62525m  699.9999m  197.8344n 
  485.72525m  699.9999m  197.9332n 
  485.82525m  699.9999m  198.0321n 
  485.92525m  699.9999m  198.1311n 
  486.02525m  699.9999m  198.2302n 
  486.12525m  699.9999m  198.3293n 
  486.22525m  699.9999m  198.4284n 
  486.32525m  699.9999m  198.5277n 
  486.42525m  699.9999m  198.6269n 
  486.52525m  699.9999m  198.7263n 
  486.62525m  699.9999m  198.8257n 
  486.72525m  699.9999m  198.9252n 
  486.82525m  699.9999m  199.0247n 
  486.92525m  699.9999m  199.1243n 
  487.02525m  699.9999m  199.2239n 
  487.12525m  699.9999m  199.3236n 
  487.22525m  699.9999m  199.4234n 
  487.32525m  699.9999m  199.5232n 
  487.42525m  699.9999m  199.6231n 
  487.52525m  699.9999m  199.7230n 
  487.62525m  699.9999m  199.8231n 
  487.72525m  699.9999m  199.9231n 
  487.82525m  699.9999m  200.0233n 
  487.92525m  699.9999m  200.1234n 
  488.02525m  699.9999m  200.2237n 
  488.12525m  699.9999m  200.3240n 
  488.22525m  699.9999m  200.4244n 
  488.32525m  699.9999m  200.5248n 
  488.42525m  699.9999m  200.6253n 
  488.52525m  699.9999m  200.7259n 
  488.62525m  699.9999m  200.8265n 
  488.72525m  699.9999m  200.9272n 
  488.82525m  699.9999m  201.0279n 
  488.92525m  699.9999m  201.1287n 
  489.02525m  699.9999m  201.2296n 
  489.12525m  699.9999m  201.3305n 
  489.22525m  699.9999m  201.4315n 
  489.32525m  699.9999m  201.5325n 
  489.42525m  699.9999m  201.6337n 
  489.52525m  699.9999m  201.7348n 
  489.62525m  699.9999m  201.8361n 
  489.72525m  699.9999m  201.9374n 
  489.82525m  699.9999m  202.0387n 
  489.92525m  699.9999m  202.1401n 
  490.02525m  699.9999m  202.2416n 
  490.12525m  699.9999m  202.3432n 
  490.22525m  699.9999m  202.4448n 
  490.32525m  699.9999m  202.5464n 
  490.42525m  699.9999m  202.6482n 
  490.52525m  699.9999m  202.7500n 
  490.62525m  699.9999m  202.8518n 
  490.72525m  699.9999m  202.9537n 
  490.82525m  699.9999m  203.0557n 
  490.92525m  699.9999m  203.1578n 
  491.02525m  699.9999m  203.2599n 
  491.12525m  699.9999m  203.3620n 
  491.22525m  699.9999m  203.4643n 
  491.32525m  699.9999m  203.5666n 
  491.42525m  699.9999m  203.6689n 
  491.52525m  699.9999m  203.7714n 
  491.62525m  699.9999m  203.8738n 
  491.72525m  699.9999m  203.9764n 
  491.82525m  699.9999m  204.0790n 
  491.92525m  699.9999m  204.1817n 
  492.02525m  699.9999m  204.2844n 
  492.12525m  699.9999m  204.3872n 
  492.22525m  699.9999m  204.4901n 
  492.32525m  699.9999m  204.5930n 
  492.42525m  699.9999m  204.6960n 
  492.52525m  699.9999m  204.7991n 
  492.62525m  699.9999m  204.9022n 
  492.72525m  699.9999m  205.0054n 
  492.82525m  699.9999m  205.1086n 
  492.92525m  699.9999m  205.2119n 
  493.02525m  699.9999m  205.3153n 
  493.12525m  699.9999m  205.4187n 
  493.22525m  699.9999m  205.5222n 
  493.32525m  699.9999m  205.6258n 
  493.42525m  699.9999m  205.7294n 
  493.52525m  699.9999m  205.8331n 
  493.62525m  699.9999m  205.9369n 
  493.72525m  699.9999m  206.0407n 
  493.82525m  699.9999m  206.1446n 
  493.92525m  699.9999m  206.2485n 
  494.02525m  699.9999m  206.3525n 
  494.12525m  699.9999m  206.4566n 
  494.22525m  699.9999m  206.5608n 
  494.32525m  699.9999m  206.6650n 
  494.42525m  699.9999m  206.7693n 
  494.52525m  699.9999m  206.8736n 
  494.62525m  699.9999m  206.9780n 
  494.72525m  699.9999m  207.0825n 
  494.82525m  699.9999m  207.1870n 
  494.92525m  699.9999m  207.2916n 
y
1****** HSPICE -- Q-2020.03-SP2-2 linux64 (Nov  1 2020) ******                  
 ******  
 .title ex1_1

 ****** operating point information tnom=  25.000 temp=  25.000 ******
 ****** operating point status is all       simulation time is     0.     
    node    =voltage      node    =voltage      node    =voltage

 +0:bl      = 700.0000m 0:blb     = 700.0000m 0:gl      = 369.3010m
 +0:gr      = 369.3010m 0:q       = 369.3010m 0:qb      = 369.3010m
 +0:u       =   0.      0:v1      = 522.2705m 0:v2      = 522.2705m
 +0:vdd     = 700.0000m 0:wl      =   0.     


 **** voltage sources

 subckt                                   
 element  0:vdd      0:vu       0:vwl     
  volts    700.0000m    0.         0.     
  current -998.3335n    0.       305.0210f
  power    698.8334n    0.         0.     

     total voltage source power dissipation=  698.8334n       watts



 **** voltage-controlled voltage sources


 subckt                                              
 element  0:eli      0:eri      0:ev1      0:ev2     
  volts    369.3010m  369.3010m  522.2705m  522.2705m
  current   16.1797f   16.1797f    0.         0.     





 **** mosfets


 subckt                                                                    
 element  0:mp_pu1   0:mp_pu2   0:mn_pd1   0:mn_pd2   0:mn_ax1   0:mn_ax2  
 model    0:pmos_sra 0:pmos_sra 0:nmos_sra 0:nmos_sra 0:nmos_sra 0:nmos_sra
 region   Subth      Subth      Subth      Subth      Cutoff     Cutoff    
  id      -499.1667n -499.1667n  499.1658n  499.1658n  938.2320a  938.2320a
  ibs        0.         0.         0.         0.         0.         0.     
  ibd        0.         0.         0.         0.         0.         0.     
  vgs     -330.6990m -330.6990m  369.3010m  369.3010m -369.3010m -369.3010m
  vds     -330.6990m -330.6990m  369.3010m  369.3010m  330.6990m  330.6990m
  vbs        0.         0.         0.         0.      -369.3010m -369.3010m
  vth     -334.7549m -334.7549m  408.4973m  408.4973m  408.7099m  408.7099m
  vdsat    -95.5225m  -95.5225m   79.1198m   79.1198m   70.6690m   70.6690m
  vod        4.0559m    4.0559m  -39.1963m  -39.1963m -778.0109m -778.0109m
  beta       1.6413m    1.6413m    2.1736m    2.1736m    2.1736m    2.1736m
  gam eff    0.         0.         0.         0.         0.         0.     
  gm        12.9906u   12.9906u   15.3997u   15.3997u  8.590e-21  8.590e-21
  gds      301.4599n  301.4599n  239.6257n  239.6257n  228.2535a  228.2536a
  gmb        4.7534p    4.7534p    5.0811p    5.0811p  8.443e-21  8.443e-21
  cdtot     10.1750a   10.1750a   10.2205a   10.2205a   10.2225a   10.2225a
  cgtot     31.2784a   31.2784a   26.1428a   26.1428a   20.4450a   20.4450a
  cstot     17.2863a   17.2863a   14.0661a   14.0661a   10.2225a   10.2225a
  cbtot      0.         0.         0.         0.         0.         0.     
  cgs       21.2138a   21.2138a   15.9421a   15.9421a   10.2225a   10.2225a
  cgd       10.0646a   10.0646a   10.2007a   10.2007a   10.2225a   10.2225a




          ***** job concluded
 ******  
 .title ex1_1

 ****** job statistics summary tnom=  25.000 temp=  25.000 ******
  
 ******  Machine Information  ******
 CPU:
 model name	: AMD EPYC 7713 64-Core Processor
 cpu MHz	: 2000.000
  
 OS:
 Linux version 3.10.0-1160.88.1.el7.x86_64 (mockbuild@kbuilder.bsys.centos.org) (gcc version 4.8.5 20150623 (Red Hat 4.8.5-44) (GCC) ) #1 SMP Tue Mar 7 15:41:52 UTC 2023


  ******  HSPICE Threads Information  ******

  Command Line Threads Count :     1
  Available CPU Count        :   256
  Actual Threads Count       :     1


  ******  Circuit Statistics  ******
  # nodes       =      12 # elements   =      15
  # resistors   =       0 # capacitors =       2 # inductors   =       0
  # mutual_inds =       0 # vccs       =       0 # vcvs        =       4
  # cccs        =       0 # ccvs       =       0 # volt_srcs   =       3
  # curr_srcs   =       0 # diodes     =       0 # bjts        =       0
  # jfets       =       0 # mosfets    =       6 # U elements  =       0
  # T elements  =       0 # W elements =       0 # B elements  =       0
  # S elements  =       0 # P elements =       0 # va device   =       0
  # vector_srcs =       0 # N elements =       0


  ******  Runtime Statistics (seconds)  ******

  analysis           time    # points   tot. iter  conv.iter
  op point           0.01           1           7
  dc sweep           0.75        9900       30873
  readin             0.02
  errchk             0.00
  setup              0.00
  output             0.00


           peak memory used        400.88 megabytes
           total cpu time            0.82 seconds
           total elapsed time        1.23 seconds
           job started at     23:02:12 03/18/2025
           job ended   at     23:02:13 03/18/2025
           job total runtime         1.23 seconds


 lic: Release hspice token(s) 
 lic: total license checkout elapse time:        0.40(s)
