 ****** HSPICE -- Q-2020.03-SP2-2 linux64 (Nov  1 2020) ******                  
  Copyright (c) 1986 - 2025 by Synopsys, Inc. All Rights Reserved.              
  This software and the associated documentation are proprietary
  to Synopsys, Inc. This software may only be used in accordance
  with the terms and conditions of a written license agreement with
  Synopsys, Inc. All other use, reproduction, or distribution of
  this software is strictly prohibited.
  Input File: ex1_1.sp                                                          
  Command line options: /RAID2/cad/synopsys/hspice/2020.03-sp2-2/hspice/linux64/hspice -i ex1_1.sp -o ex1_1.lis
  Start time: Tue Mar 18 23:24:03 2025
 lic:  
 lic: FLEXlm: SDK_12.6 
 lic: USER:   es25MCS042           HOSTNAME: ee28 
 lic: HOSTID: "d85ed3efc19a"       PID:      70670 
 lic: Using FLEXlm license file: 
 lic: 26585@lshc 
 lic: Checkout 1 hspice 
 lic: License/Maintenance for hspice will expire on 14-may-2025/2024.09 
 lic: 207(in_use)/1100(total) FLOATING license(s) on SERVER 26585@lshc 
 lic:   
  
      
 *****************************************************************
 ******  option summary
 ******
 runlvl  = 3         bypass  = 2.0000    
 convergence problems in dc sweep curves at  0.11113    
  resimulating with dc convergence controls

 ******
 .title ex1_1

 ****** dc transfer curves tnom=  25.000 temp=  25.000 ******
x

 volt         voltage    voltage   
             q          qb         
 -494.97475m   88.9238m  699.9999m 
 -494.87475m   88.9248m  699.9999m 
 -494.77475m   88.9259m  699.9999m 
 -494.67475m   88.9269m  699.9999m 
 -494.57475m   88.9280m  699.9999m 
 -494.47475m   88.9290m  699.9999m 
 -494.37475m   88.9301m  699.9999m 
 -494.27475m   88.9312m  699.9999m 
 -494.17475m   88.9322m  699.9999m 
 -494.07475m   88.9333m  699.9999m 
 -493.97475m   88.9343m  699.9999m 
 -493.87475m   88.9354m  699.9999m 
 -493.77475m   88.9364m  699.9999m 
 -493.67475m   88.9375m  699.9999m 
 -493.57475m   88.9385m  699.9999m 
 -493.47475m   88.9396m  699.9999m 
 -493.37475m   88.9407m  699.9999m 
 -493.27475m   88.9417m  699.9999m 
 -493.17475m   88.9428m  699.9999m 
 -493.07475m   88.9438m  699.9999m 
 -492.97475m   88.9449m  699.9999m 
 -492.87475m   88.9460m  699.9999m 
 -492.77475m   88.9470m  699.9999m 
 -492.67475m   88.9481m  699.9999m 
 -492.57475m   88.9491m  699.9999m 
 -492.47475m   88.9502m  699.9999m 
 -492.37475m   88.9513m  699.9999m 
 -492.27475m   88.9523m  699.9999m 
 -492.17475m   88.9534m  699.9999m 
 -492.07475m   88.9545m  699.9999m 
 -491.97475m   88.9555m  699.9999m 
 -491.87475m   88.9566m  699.9999m 
 -491.77475m   88.9577m  699.9999m 
 -491.67475m   88.9587m  699.9999m 
 -491.57475m   88.9598m  699.9999m 
 -491.47475m   88.9609m  699.9999m 
 -491.37475m   88.9619m  699.9999m 
 -491.27475m   88.9630m  699.9999m 
 -491.17475m   88.9641m  699.9999m 
 -491.07475m   88.9651m  699.9999m 
 -490.97475m   88.9662m  699.9999m 
 -490.87475m   88.9673m  699.9999m 
 -490.77475m   88.9683m  699.9999m 
 -490.67475m   88.9694m  699.9999m 
 -490.57475m   88.9705m  699.9999m 
 -490.47475m   88.9716m  699.9999m 
 -490.37475m   88.9726m  699.9999m 
 -490.27475m   88.9737m  699.9999m 
 -490.17475m   88.9748m  699.9999m 
 -490.07475m   88.9759m  699.9999m 
 -489.97475m   88.9769m  699.9999m 
 -489.87475m   88.9780m  699.9999m 
 -489.77475m   88.9791m  699.9999m 
 -489.67475m   88.9802m  699.9999m 
 -489.57475m   88.9812m  699.9999m 
 -489.47475m   88.9823m  699.9999m 
 -489.37475m   88.9834m  699.9999m 
 -489.27475m   88.9845m  699.9999m 
 -489.17475m   88.9856m  699.9999m 
 -489.07475m   88.9866m  699.9999m 
 -488.97475m   88.9877m  699.9999m 
 -488.87475m   88.9888m  699.9999m 
 -488.77475m   88.9899m  699.9999m 
 -488.67475m   88.9910m  699.9999m 
 -488.57475m   88.9920m  699.9999m 
 -488.47475m   88.9931m  699.9999m 
 -488.37475m   88.9942m  699.9999m 
 -488.27475m   88.9953m  699.9999m 
 -488.17475m   88.9964m  699.9999m 
 -488.07475m   88.9975m  699.9999m 
 -487.97475m   88.9986m  699.9999m 
 -487.87475m   88.9996m  699.9999m 
 -487.77475m   89.0007m  699.9999m 
 -487.67475m   89.0018m  699.9999m 
 -487.57475m   89.0029m  699.9999m 
 -487.47475m   89.0040m  699.9999m 
 -487.37475m   89.0051m  699.9999m 
 -487.27475m   89.0062m  699.9999m 
 -487.17475m   89.0073m  699.9999m 
 -487.07475m   89.0083m  699.9999m 
 -486.97475m   89.0094m  699.9999m 
 -486.87475m   89.0105m  699.9999m 
 -486.77475m   89.0116m  699.9999m 
 -486.67475m   89.0127m  699.9999m 
 -486.57475m   89.0138m  699.9999m 
 -486.47475m   89.0149m  699.9999m 
 -486.37475m   89.0160m  699.9999m 
 -486.27475m   89.0171m  699.9999m 
 -486.17475m   89.0182m  699.9999m 
 -486.07475m   89.0193m  699.9999m 
 -485.97475m   89.0204m  699.9999m 
 -485.87475m   89.0215m  699.9999m 
 -485.77475m   89.0226m  699.9999m 
 -485.67475m   89.0237m  699.9999m 
 -485.57475m   89.0248m  699.9999m 
 -485.47475m   89.0259m  699.9999m 
 -485.37475m   89.0270m  699.9999m 
 -485.27475m   89.0281m  699.9999m 
 -485.17475m   89.0292m  699.9999m 
 -485.07475m   89.0303m  699.9999m 
 -484.97475m   89.0314m  699.9999m 
 -484.87475m   89.0325m  699.9999m 
 -484.77475m   89.0336m  699.9999m 
 -484.67475m   89.0347m  699.9999m 
 -484.57475m   89.0358m  699.9999m 
 -484.47475m   89.0369m  699.9999m 
 -484.37475m   89.0380m  699.9999m 
 -484.27475m   89.0391m  699.9999m 
 -484.17475m   89.0402m  699.9999m 
 -484.07475m   89.0413m  699.9999m 
 -483.97475m   89.0424m  699.9999m 
 -483.87475m   89.0435m  699.9999m 
 -483.77475m   89.0446m  699.9999m 
 -483.67475m   89.0457m  699.9999m 
 -483.57475m   89.0468m  699.9999m 
 -483.47475m   89.0479m  699.9999m 
 -483.37475m   89.0491m  699.9999m 
 -483.27475m   89.0502m  699.9999m 
 -483.17475m   89.0513m  699.9999m 
 -483.07475m   89.0524m  699.9999m 
 -482.97475m   89.0535m  699.9999m 
 -482.87475m   89.0546m  699.9999m 
 -482.77475m   89.0557m  699.9999m 
 -482.67475m   89.0568m  699.9999m 
 -482.57475m   89.0579m  699.9999m 
 -482.47475m   89.0591m  699.9999m 
 -482.37475m   89.0602m  699.9999m 
 -482.27475m   89.0613m  699.9999m 
 -482.17475m   89.0624m  699.9999m 
 -482.07475m   89.0635m  699.9999m 
 -481.97475m   89.0646m  699.9999m 
 -481.87475m   89.0658m  699.9999m 
 -481.77475m   89.0669m  699.9999m 
 -481.67475m   89.0680m  699.9999m 
 -481.57475m   89.0691m  699.9999m 
 -481.47475m   89.0702m  699.9999m 
 -481.37475m   89.0714m  699.9999m 
 -481.27475m   89.0725m  699.9999m 
 -481.17475m   89.0736m  699.9999m 
 -481.07475m   89.0747m  699.9999m 
 -480.97475m   89.0758m  699.9999m 
 -480.87475m   89.0770m  699.9999m 
 -480.77475m   89.0781m  699.9999m 
 -480.67475m   89.0792m  699.9999m 
 -480.57475m   89.0803m  699.9999m 
 -480.47475m   89.0815m  699.9999m 
 -480.37475m   89.0826m  699.9999m 
 -480.27475m   89.0837m  699.9999m 
 -480.17475m   89.0848m  699.9999m 
 -480.07475m   89.0860m  699.9999m 
 -479.97475m   89.0871m  699.9999m 
 -479.87475m   89.0882m  699.9999m 
 -479.77475m   89.0893m  699.9999m 
 -479.67475m   89.0905m  699.9999m 
 -479.57475m   89.0916m  699.9999m 
 -479.47475m   89.0927m  699.9999m 
 -479.37475m   89.0939m  699.9999m 
 -479.27475m   89.0950m  699.9999m 
 -479.17475m   89.0961m  699.9999m 
 -479.07475m   89.0973m  699.9999m 
 -478.97475m   89.0984m  699.9999m 
 -478.87475m   89.0995m  699.9999m 
 -478.77475m   89.1007m  699.9999m 
 -478.67475m   89.1018m  699.9999m 
 -478.57475m   89.1029m  699.9999m 
 -478.47475m   89.1041m  699.9999m 
 -478.37475m   89.1052m  699.9999m 
 -478.27475m   89.1063m  700.0000m 
 -478.17475m   89.1075m  700.0000m 
 -478.07475m   89.1086m  700.0000m 
 -477.97475m   89.1098m  700.0000m 
 -477.87475m   89.1109m  700.0000m 
 -477.77475m   89.1120m  700.0000m 
 -477.67475m   89.1132m  700.0000m 
 -477.57475m   89.1143m  700.0000m 
 -477.47475m   89.1155m  700.0000m 
 -477.37475m   89.1166m  700.0000m 
 -477.27475m   89.1177m  700.0000m 
 -477.17475m   89.1189m  700.0000m 
 -477.07475m   89.1200m  700.0000m 
 -476.97475m   89.1212m  700.0000m 
 -476.87475m   89.1223m  700.0000m 
 -476.77475m   89.1235m  700.0000m 
 -476.67475m   89.1246m  700.0000m 
 -476.57475m   89.1257m  700.0000m 
 -476.47475m   89.1269m  700.0000m 
 -476.37475m   89.1280m  700.0000m 
 -476.27475m   89.1292m  700.0000m 
 -476.17475m   89.1303m  700.0000m 
 -476.07475m   89.1315m  700.0000m 
 -475.97475m   89.1326m  700.0000m 
 -475.87475m   89.1338m  700.0000m 
 -475.77475m   89.1349m  700.0000m 
 -475.67475m   89.1361m  700.0000m 
 -475.57475m   89.1372m  700.0000m 
 -475.47475m   89.1384m  700.0000m 
 -475.37475m   89.1395m  700.0000m 
 -475.27475m   89.1407m  700.0000m 
 -475.17475m   89.1418m  700.0000m 
 -475.07475m   89.1430m  700.0000m 
 -474.97475m   89.1442m  700.0000m 
 -474.87475m   89.1453m  700.0000m 
 -474.77475m   89.1465m  700.0000m 
 -474.67475m   89.1476m  700.0000m 
 -474.57475m   89.1488m  700.0000m 
 -474.47475m   89.1499m  700.0000m 
 -474.37475m   89.1511m  700.0000m 
 -474.27475m   89.1523m  700.0000m 
 -474.17475m   89.1534m  700.0000m 
 -474.07475m   89.1546m  700.0000m 
 -473.97475m   89.1557m  700.0000m 
 -473.87475m   89.1569m  700.0000m 
 -473.77475m   89.1581m  700.0000m 
 -473.67475m   89.1592m  700.0000m 
 -473.57475m   89.1604m  700.0000m 
 -473.47475m   89.1615m  700.0000m 
 -473.37475m   89.1627m  700.0000m 
 -473.27475m   89.1639m  700.0000m 
 -473.17475m   89.1650m  700.0000m 
 -473.07475m   89.1662m  700.0000m 
 -472.97475m   89.1674m  700.0000m 
 -472.87475m   89.1685m  700.0000m 
 -472.77475m   89.1697m  700.0000m 
 -472.67475m   89.1709m  700.0000m 
 -472.57475m   89.1720m  700.0000m 
 -472.47475m   89.1732m  700.0000m 
 -472.37475m   89.1744m  700.0000m 
 -472.27475m   89.1755m  700.0000m 
 -472.17475m   89.1767m  700.0000m 
 -472.07475m   89.1779m  700.0000m 
 -471.97475m   89.1790m  700.0000m 
 -471.87475m   89.1802m  700.0000m 
 -471.77475m   89.1814m  700.0000m 
 -471.67475m   89.1826m  700.0000m 
 -471.57475m   89.1837m  700.0000m 
 -471.47475m   89.1849m  700.0000m 
 -471.37475m   89.1861m  700.0000m 
 -471.27475m   89.1873m  700.0000m 
 -471.17475m   89.1884m  700.0000m 
 -471.07475m   89.1896m  700.0000m 
 -470.97475m   89.1908m  700.0000m 
 -470.87475m   89.1920m  700.0000m 
 -470.77475m   89.1931m  700.0000m 
 -470.67475m   89.1943m  700.0000m 
 -470.57475m   89.1955m  700.0000m 
 -470.47475m   89.1967m  700.0000m 
 -470.37475m   89.1979m  700.0000m 
 -470.27475m   89.1990m  700.0000m 
 -470.17475m   89.2002m  700.0000m 
 -470.07475m   89.2014m  700.0000m 
 -469.97475m   89.2026m  700.0000m 
 -469.87475m   89.2038m  700.0000m 
 -469.77475m   89.2049m  700.0000m 
 -469.67475m   89.2061m  700.0000m 
 -469.57475m   89.2073m  700.0000m 
 -469.47475m   89.2085m  700.0000m 
 -469.37475m   89.2097m  700.0000m 
 -469.27475m   89.2109m  700.0000m 
 -469.17475m   89.2121m  700.0000m 
 -469.07475m   89.2132m  700.0000m 
 -468.97475m   89.2144m  700.0000m 
 -468.87475m   89.2156m  700.0000m 
 -468.77475m   89.2168m  700.0000m 
 -468.67475m   89.2180m  700.0000m 
 -468.57475m   89.2192m  700.0000m 
 -468.47475m   89.2204m  700.0000m 
 -468.37475m   89.2216m  700.0000m 
 -468.27475m   89.2228m  700.0000m 
 -468.17475m   89.2240m  700.0000m 
 -468.07475m   89.2252m  700.0000m 
 -467.97475m   89.2263m  700.0000m 
 -467.87475m   89.2275m  700.0000m 
 -467.77475m   89.2287m  700.0000m 
 -467.67475m   89.2299m  700.0000m 
 -467.57475m   89.2311m  700.0000m 
 -467.47475m   89.2323m  700.0000m 
 -467.37475m   89.2335m  700.0000m 
 -467.27475m   89.2347m  700.0000m 
 -467.17475m   89.2359m  700.0000m 
 -467.07475m   89.2371m  700.0000m 
 -466.97475m   89.2383m  700.0000m 
 -466.87475m   89.2395m  700.0000m 
 -466.77475m   89.2407m  700.0000m 
 -466.67475m   89.2419m  700.0000m 
 -466.57475m   89.2431m  700.0000m 
 -466.47475m   89.2443m  700.0000m 
 -466.37475m   89.2455m  700.0000m 
 -466.27475m   89.2467m  700.0000m 
 -466.17475m   89.2479m  700.0000m 
 -466.07475m   89.2491m  700.0000m 
 -465.97475m   89.2503m  700.0000m 
 -465.87475m   89.2515m  700.0000m 
 -465.77475m   89.2527m  700.0000m 
 -465.67475m   89.2540m  700.0000m 
 -465.57475m   89.2552m  700.0000m 
 -465.47475m   89.2564m  700.0000m 
 -465.37475m   89.2576m  700.0000m 
 -465.27475m   89.2588m  700.0000m 
 -465.17475m   89.2600m  700.0000m 
 -465.07475m   89.2612m  700.0000m 
 -464.97475m   89.2624m  700.0000m 
 -464.87475m   89.2636m  700.0000m 
 -464.77475m   89.2648m  700.0000m 
 -464.67475m   89.2660m  700.0000m 
 -464.57475m   89.2673m  700.0000m 
 -464.47475m   89.2685m  700.0000m 
 -464.37475m   89.2697m  700.0000m 
 -464.27475m   89.2709m  700.0000m 
 -464.17475m   89.2721m  700.0000m 
 -464.07475m   89.2733m  700.0000m 
 -463.97475m   89.2746m  700.0000m 
 -463.87475m   89.2758m  700.0000m 
 -463.77475m   89.2770m  700.0000m 
 -463.67475m   89.2782m  700.0000m 
 -463.57475m   89.2794m  700.0000m 
 -463.47475m   89.2806m  700.0000m 
 -463.37475m   89.2819m  700.0000m 
 -463.27475m   89.2831m  700.0000m 
 -463.17475m   89.2843m  700.0000m 
 -463.07475m   89.2855m  700.0000m 
 -462.97475m   89.2867m  700.0000m 
 -462.87475m   89.2880m  700.0000m 
 -462.77475m   89.2892m  700.0000m 
 -462.67475m   89.2904m  700.0000m 
 -462.57475m   89.2916m  700.0000m 
 -462.47475m   89.2929m  700.0000m 
 -462.37475m   89.2941m  700.0000m 
 -462.27475m   89.2953m  700.0000m 
 -462.17475m   89.2965m  700.0000m 
 -462.07475m   89.2978m  700.0000m 
 -461.97475m   89.2990m  700.0000m 
 -461.87475m   89.3002m  700.0000m 
 -461.77475m   89.3015m  700.0000m 
 -461.67475m   89.3027m  700.0000m 
 -461.57475m   89.3039m  700.0000m 
 -461.47475m   89.3051m  700.0000m 
 -461.37475m   89.3064m  700.0000m 
 -461.27475m   89.3076m  700.0000m 
 -461.17475m   89.3088m  700.0000m 
 -461.07475m   89.3101m  700.0000m 
 -460.97475m   89.3113m  700.0000m 
 -460.87475m   89.3125m  700.0000m 
 -460.77475m   89.3138m  700.0000m 
 -460.67475m   89.3150m  700.0000m 
 -460.57475m   89.3163m  700.0000m 
 -460.47475m   89.3175m  700.0000m 
 -460.37475m   89.3187m  700.0000m 
 -460.27475m   89.3200m  700.0000m 
 -460.17475m   89.3212m  700.0000m 
 -460.07475m   89.3224m  700.0000m 
 -459.97475m   89.3237m  700.0000m 
 -459.87475m   89.3249m  700.0000m 
 -459.77475m   89.3262m  700.0000m 
 -459.67475m   89.3274m  700.0000m 
 -459.57475m   89.3286m  700.0000m 
 -459.47475m   89.3299m  700.0000m 
 -459.37475m   89.3311m  700.0000m 
 -459.27475m   89.3324m  700.0000m 
 -459.17475m   89.3336m  700.0000m 
 -459.07475m   89.3349m  700.0000m 
 -458.97475m   89.3361m  700.0000m 
 -458.87475m   89.3374m  700.0000m 
 -458.77475m   89.3386m  700.0000m 
 -458.67475m   89.3398m  700.0000m 
 -458.57475m   89.3411m  700.0000m 
 -458.47475m   89.3423m  700.0000m 
 -458.37475m   89.3436m  700.0000m 
 -458.27475m   89.3448m  700.0000m 
 -458.17475m   89.3461m  700.0000m 
 -458.07475m   89.3473m  700.0000m 
 -457.97475m   89.3486m  700.0000m 
 -457.87475m   89.3498m  700.0000m 
 -457.77475m   89.3511m  700.0000m 
 -457.67475m   89.3524m  700.0000m 
 -457.57475m   89.3536m  700.0000m 
 -457.47475m   89.3549m  700.0000m 
 -457.37475m   89.3561m  700.0000m 
 -457.27475m   89.3574m  700.0000m 
 -457.17475m   89.3586m  700.0000m 
 -457.07475m   89.3599m  700.0000m 
 -456.97475m   89.3611m  700.0000m 
 -456.87475m   89.3624m  700.0000m 
 -456.77475m   89.3637m  700.0000m 
 -456.67475m   89.3649m  700.0000m 
 -456.57475m   89.3662m  700.0000m 
 -456.47475m   89.3674m  700.0000m 
 -456.37475m   89.3687m  700.0000m 
 -456.27475m   89.3700m  700.0000m 
 -456.17475m   89.3712m  700.0000m 
 -456.07475m   89.3725m  700.0000m 
 -455.97475m   89.3738m  700.0000m 
 -455.87475m   89.3750m  700.0000m 
 -455.77475m   89.3763m  700.0000m 
 -455.67475m   89.3775m  700.0000m 
 -455.57475m   89.3788m  700.0000m 
 -455.47475m   89.3801m  700.0000m 
 -455.37475m   89.3813m  700.0000m 
 -455.27475m   89.3826m  700.0000m 
 -455.17475m   89.3839m  700.0000m 
 -455.07475m   89.3851m  700.0000m 
 -454.97475m   89.3864m  700.0000m 
 -454.87475m   89.3877m  700.0000m 
 -454.77475m   89.3890m  700.0000m 
 -454.67475m   89.3902m  700.0000m 
 -454.57475m   89.3915m  700.0000m 
 -454.47475m   89.3928m  700.0000m 
 -454.37475m   89.3940m  700.0000m 
 -454.27475m   89.3953m  700.0000m 
 -454.17475m   89.3966m  700.0000m 
 -454.07475m   89.3979m  700.0000m 
 -453.97475m   89.3991m  700.0000m 
 -453.87475m   89.4004m  700.0000m 
 -453.77475m   89.4017m  700.0000m 
 -453.67475m   89.4030m  700.0000m 
 -453.57475m   89.4043m  700.0000m 
 -453.47475m   89.4055m  700.0000m 
 -453.37475m   89.4068m  700.0000m 
 -453.27475m   89.4081m  700.0000m 
 -453.17475m   89.4094m  700.0000m 
 -453.07475m   89.4107m  700.0000m 
 -452.97475m   89.4119m  700.0000m 
 -452.87475m   89.4132m  700.0000m 
 -452.77475m   89.4145m  700.0000m 
 -452.67475m   89.4158m  700.0000m 
 -452.57475m   89.4171m  700.0000m 
 -452.47475m   89.4184m  700.0000m 
 -452.37475m   89.4196m  700.0000m 
 -452.27475m   89.4209m  700.0000m 
 -452.17475m   89.4222m  700.0000m 
 -452.07475m   89.4235m  700.0000m 
 -451.97475m   89.4248m  700.0000m 
 -451.87475m   89.4261m  700.0000m 
 -451.77475m   89.4274m  700.0000m 
 -451.67475m   89.4287m  700.0000m 
 -451.57475m   89.4299m  700.0000m 
 -451.47475m   89.4312m  700.0000m 
 -451.37475m   89.4325m  700.0000m 
 -451.27475m   89.4338m  700.0000m 
 -451.17475m   89.4351m  700.0000m 
 -451.07475m   89.4364m  700.0000m 
 -450.97475m   89.4377m  700.0000m 
 -450.87475m   89.4390m  700.0000m 
 -450.77475m   89.4403m  700.0000m 
 -450.67475m   89.4416m  700.0000m 
 -450.57475m   89.4429m  700.0000m 
 -450.47475m   89.4442m  700.0000m 
 -450.37475m   89.4455m  700.0000m 
 -450.27475m   89.4468m  700.0000m 
 -450.17475m   89.4481m  700.0000m 
 -450.07475m   89.4494m  700.0000m 
 -449.97475m   89.4507m  700.0000m 
 -449.87475m   89.4520m  700.0000m 
 -449.77475m   89.4533m  700.0000m 
 -449.67475m   89.4546m  700.0000m 
 -449.57475m   89.4559m  700.0000m 
 -449.47475m   89.4572m  700.0000m 
 -449.37475m   89.4585m  700.0000m 
 -449.27475m   89.4598m  700.0000m 
 -449.17475m   89.4611m  700.0000m 
 -449.07475m   89.4624m  700.0000m 
 -448.97475m   89.4637m  700.0000m 
 -448.87475m   89.4650m  700.0000m 
 -448.77475m   89.4663m  700.0000m 
 -448.67475m   89.4676m  700.0000m 
 -448.57475m   89.4689m  700.0000m 
 -448.47475m   89.4702m  700.0000m 
 -448.37475m   89.4715m  700.0000m 
 -448.27475m   89.4729m  700.0000m 
 -448.17475m   89.4742m  700.0000m 
 -448.07475m   89.4755m  700.0000m 
 -447.97475m   89.4768m  700.0000m 
 -447.87475m   89.4781m  700.0000m 
 -447.77475m   89.4794m  700.0000m 
 -447.67475m   89.4807m  700.0000m 
 -447.57475m   89.4821m  700.0000m 
 -447.47475m   89.4834m  700.0000m 
 -447.37475m   89.4847m  700.0000m 
 -447.27475m   89.4860m  700.0000m 
 -447.17475m   89.4873m  700.0000m 
 -447.07475m   89.4886m  700.0000m 
 -446.97475m   89.4900m  700.0000m 
 -446.87475m   89.4913m  700.0000m 
 -446.77475m   89.4926m  700.0000m 
 -446.67475m   89.4939m  700.0000m 
 -446.57475m   89.4952m  700.0000m 
 -446.47475m   89.4966m  700.0000m 
 -446.37475m   89.4979m  700.0000m 
 -446.27475m   89.4992m  700.0000m 
 -446.17475m   89.5005m  700.0000m 
 -446.07475m   89.5019m  700.0000m 
 -445.97475m   89.5032m  700.0000m 
 -445.87475m   89.5045m  700.0000m 
 -445.77475m   89.5058m  700.0000m 
 -445.67475m   89.5072m  700.0000m 
 -445.57475m   89.5085m  700.0000m 
 -445.47475m   89.5098m  700.0000m 
 -445.37475m   89.5111m  700.0000m 
 -445.27475m   89.5125m  700.0000m 
 -445.17475m   89.5138m  700.0000m 
 -445.07475m   89.5151m  700.0000m 
 -444.97475m   89.5165m  700.0000m 
 -444.87475m   89.5178m  700.0000m 
 -444.77475m   89.5191m  700.0000m 
 -444.67475m   89.5205m  700.0000m 
 -444.57475m   89.5218m  700.0000m 
 -444.47475m   89.5231m  700.0000m 
 -444.37475m   89.5245m  700.0000m 
 -444.27475m   89.5258m  700.0000m 
 -444.17475m   89.5271m  700.0000m 
 -444.07475m   89.5285m  700.0000m 
 -443.97475m   89.5298m  700.0000m 
 -443.87475m   89.5311m  700.0000m 
 -443.77475m   89.5325m  700.0000m 
 -443.67475m   89.5338m  700.0000m 
 -443.57475m   89.5352m  700.0000m 
 -443.47475m   89.5365m  700.0000m 
 -443.37475m   89.5378m  700.0000m 
 -443.27475m   89.5392m  700.0000m 
 -443.17475m   89.5405m  700.0000m 
 -443.07475m   89.5419m  700.0000m 
 -442.97475m   89.5432m  700.0000m 
 -442.87475m   89.5446m  700.0000m 
 -442.77475m   89.5459m  700.0000m 
 -442.67475m   89.5473m  700.0000m 
 -442.57475m   89.5486m  700.0000m 
 -442.47475m   89.5500m  700.0000m 
 -442.37475m   89.5513m  700.0000m 
 -442.27475m   89.5526m  700.0000m 
 -442.17475m   89.5540m  700.0000m 
 -442.07475m   89.5553m  700.0000m 
 -441.97475m   89.5567m  700.0000m 
 -441.87475m   89.5580m  700.0000m 
 -441.77475m   89.5594m  700.0000m 
 -441.67475m   89.5608m  700.0000m 
 -441.57475m   89.5621m  700.0000m 
 -441.47475m   89.5635m  700.0000m 
 -441.37475m   89.5648m  700.0000m 
 -441.27475m   89.5662m  700.0000m 
 -441.17475m   89.5675m  700.0000m 
 -441.07475m   89.5689m  700.0000m 
 -440.97475m   89.5702m  700.0000m 
 -440.87475m   89.5716m  700.0000m 
 -440.77475m   89.5730m  700.0000m 
 -440.67475m   89.5743m  700.0000m 
 -440.57475m   89.5757m  700.0000m 
 -440.47475m   89.5770m  700.0000m 
 -440.37475m   89.5784m  700.0000m 
 -440.27475m   89.5798m  700.0000m 
 -440.17475m   89.5811m  700.0000m 
 -440.07475m   89.5825m  700.0000m 
 -439.97475m   89.5838m  700.0000m 
 -439.87475m   89.5852m  700.0000m 
 -439.77475m   89.5866m  700.0000m 
 -439.67475m   89.5879m  700.0000m 
 -439.57475m   89.5893m  700.0000m 
 -439.47475m   89.5907m  700.0000m 
 -439.37475m   89.5920m  700.0000m 
 -439.27475m   89.5934m  700.0000m 
 -439.17475m   89.5948m  700.0000m 
 -439.07475m   89.5961m  700.0000m 
 -438.97475m   89.5975m  700.0000m 
 -438.87475m   89.5989m  700.0000m 
 -438.77475m   89.6003m  700.0000m 
 -438.67475m   89.6016m  700.0000m 
 -438.57475m   89.6030m  700.0000m 
 -438.47475m   89.6044m  700.0000m 
 -438.37475m   89.6057m  700.0000m 
 -438.27475m   89.6071m  700.0000m 
 -438.17475m   89.6085m  700.0000m 
 -438.07475m   89.6099m  700.0000m 
 -437.97475m   89.6112m  700.0000m 
 -437.87475m   89.6126m  700.0000m 
 -437.77475m   89.6140m  700.0000m 
 -437.67475m   89.6154m  700.0000m 
 -437.57475m   89.6168m  700.0000m 
 -437.47475m   89.6181m  700.0000m 
 -437.37475m   89.6195m  700.0000m 
 -437.27475m   89.6209m  700.0000m 
 -437.17475m   89.6223m  700.0000m 
 -437.07475m   89.6237m  700.0000m 
 -436.97475m   89.6251m  700.0000m 
 -436.87475m   89.6264m  700.0000m 
 -436.77475m   89.6278m  700.0000m 
 -436.67475m   89.6292m  700.0000m 
 -436.57475m   89.6306m  700.0000m 
 -436.47475m   89.6320m  700.0000m 
 -436.37475m   89.6334m  700.0000m 
 -436.27475m   89.6348m  700.0000m 
 -436.17475m   89.6361m  700.0000m 
 -436.07475m   89.6375m  700.0000m 
 -435.97475m   89.6389m  700.0000m 
 -435.87475m   89.6403m  700.0000m 
 -435.77475m   89.6417m  700.0000m 
 -435.67475m   89.6431m  700.0000m 
 -435.57475m   89.6445m  700.0000m 
 -435.47475m   89.6459m  700.0000m 
 -435.37475m   89.6473m  700.0000m 
 -435.27475m   89.6487m  700.0000m 
 -435.17475m   89.6501m  700.0000m 
 -435.07475m   89.6515m  700.0000m 
 -434.97475m   89.6529m  700.0000m 
 -434.87475m   89.6543m  700.0000m 
 -434.77475m   89.6556m  700.0000m 
 -434.67475m   89.6570m  700.0000m 
 -434.57475m   89.6584m  700.0000m 
 -434.47475m   89.6598m  700.0000m 
 -434.37475m   89.6612m  700.0000m 
 -434.27475m   89.6626m  700.0000m 
 -434.17475m   89.6640m  700.0000m 
 -434.07475m   89.6655m  700.0000m 
 -433.97475m   89.6669m  700.0000m 
 -433.87475m   89.6683m  700.0000m 
 -433.77475m   89.6697m  700.0000m 
 -433.67475m   89.6711m  700.0000m 
 -433.57475m   89.6725m  700.0000m 
 -433.47475m   89.6739m  700.0000m 
 -433.37475m   89.6753m  700.0000m 
 -433.27475m   89.6767m  700.0000m 
 -433.17475m   89.6781m  700.0000m 
 -433.07475m   89.6795m  700.0000m 
 -432.97475m   89.6809m  700.0000m 
 -432.87475m   89.6823m  700.0000m 
 -432.77475m   89.6837m  700.0000m 
 -432.67475m   89.6852m  700.0000m 
 -432.57475m   89.6866m  700.0000m 
 -432.47475m   89.6880m  700.0000m 
 -432.37475m   89.6894m  700.0000m 
 -432.27475m   89.6908m  700.0000m 
 -432.17475m   89.6922m  700.0000m 
 -432.07475m   89.6936m  700.0000m 
 -431.97475m   89.6951m  700.0000m 
 -431.87475m   89.6965m  700.0000m 
 -431.77475m   89.6979m  700.0000m 
 -431.67475m   89.6993m  700.0000m 
 -431.57475m   89.7007m  700.0000m 
 -431.47475m   89.7022m  700.0000m 
 -431.37475m   89.7036m  700.0000m 
 -431.27475m   89.7050m  700.0000m 
 -431.17475m   89.7064m  700.0000m 
 -431.07475m   89.7078m  700.0000m 
 -430.97475m   89.7093m  700.0000m 
 -430.87475m   89.7107m  700.0000m 
 -430.77475m   89.7121m  700.0000m 
 -430.67475m   89.7135m  700.0000m 
 -430.57475m   89.7150m  700.0000m 
 -430.47475m   89.7164m  700.0000m 
 -430.37475m   89.7178m  700.0000m 
 -430.27475m   89.7192m  700.0000m 
 -430.17475m   89.7207m  700.0000m 
 -430.07475m   89.7221m  700.0000m 
 -429.97475m   89.7235m  700.0000m 
 -429.87475m   89.7250m  700.0000m 
 -429.77475m   89.7264m  700.0000m 
 -429.67475m   89.7278m  700.0000m 
 -429.57475m   89.7293m  700.0000m 
 -429.47475m   89.7307m  700.0000m 
 -429.37475m   89.7321m  700.0000m 
 -429.27475m   89.7336m  700.0000m 
 -429.17475m   89.7350m  700.0000m 
 -429.07475m   89.7364m  700.0000m 
 -428.97475m   89.7379m  700.0000m 
 -428.87475m   89.7393m  700.0000m 
 -428.77475m   89.7408m  700.0000m 
 -428.67475m   89.7422m  700.0000m 
 -428.57475m   89.7436m  700.0000m 
 -428.47475m   89.7451m  700.0000m 
 -428.37475m   89.7465m  700.0000m 
 -428.27475m   89.7480m  700.0000m 
 -428.17475m   89.7494m  700.0000m 
 -428.07475m   89.7508m  700.0000m 
 -427.97475m   89.7523m  700.0000m 
 -427.87475m   89.7537m  700.0000m 
 -427.77475m   89.7552m  700.0000m 
 -427.67475m   89.7566m  700.0000m 
 -427.57475m   89.7581m  700.0000m 
 -427.47475m   89.7595m  700.0000m 
 -427.37475m   89.7610m  700.0000m 
 -427.27475m   89.7624m  700.0000m 
 -427.17475m   89.7639m  700.0000m 
 -427.07475m   89.7653m  700.0000m 
 -426.97475m   89.7668m  700.0000m 
 -426.87475m   89.7682m  700.0000m 
 -426.77475m   89.7697m  700.0000m 
 -426.67475m   89.7711m  700.0000m 
 -426.57475m   89.7726m  700.0000m 
 -426.47475m   89.7740m  700.0000m 
 -426.37475m   89.7755m  700.0000m 
 -426.27475m   89.7769m  700.0000m 
 -426.17475m   89.7784m  700.0000m 
 -426.07475m   89.7799m  700.0000m 
 -425.97475m   89.7813m  700.0000m 
 -425.87475m   89.7828m  700.0000m 
 -425.77475m   89.7842m  700.0000m 
 -425.67475m   89.7857m  700.0000m 
 -425.57475m   89.7872m  700.0000m 
 -425.47475m   89.7886m  700.0000m 
 -425.37475m   89.7901m  700.0000m 
 -425.27475m   89.7915m  700.0000m 
 -425.17475m   89.7930m  700.0000m 
 -425.07475m   89.7945m  700.0000m 
 -424.97475m   89.7959m  700.0000m 
 -424.87475m   89.7974m  700.0000m 
 -424.77475m   89.7989m  700.0000m 
 -424.67475m   89.8003m  700.0000m 
 -424.57475m   89.8018m  700.0000m 
 -424.47475m   89.8033m  700.0000m 
 -424.37475m   89.8047m  700.0000m 
 -424.27475m   89.8062m  700.0000m 
 -424.17475m   89.8077m  700.0000m 
 -424.07475m   89.8091m  700.0000m 
 -423.97475m   89.8106m  700.0000m 
 -423.87475m   89.8121m  700.0000m 
 -423.77475m   89.8136m  700.0000m 
 -423.67475m   89.8150m  700.0000m 
 -423.57475m   89.8165m  700.0000m 
 -423.47475m   89.8180m  700.0000m 
 -423.37475m   89.8195m  700.0000m 
 -423.27475m   89.8209m  700.0000m 
 -423.17475m   89.8224m  700.0000m 
 -423.07475m   89.8239m  700.0000m 
 -422.97475m   89.8254m  700.0000m 
 -422.87475m   89.8269m  700.0000m 
 -422.77475m   89.8283m  700.0000m 
 -422.67475m   89.8298m  700.0000m 
 -422.57475m   89.8313m  700.0000m 
 -422.47475m   89.8328m  700.0000m 
 -422.37475m   89.8343m  700.0000m 
 -422.27475m   89.8358m  700.0000m 
 -422.17475m   89.8372m  700.0000m 
 -422.07475m   89.8387m  700.0000m 
 -421.97475m   89.8402m  700.0000m 
 -421.87475m   89.8417m  700.0000m 
 -421.77475m   89.8432m  700.0000m 
 -421.67475m   89.8447m  700.0000m 
 -421.57475m   89.8462m  700.0000m 
 -421.47475m   89.8477m  700.0000m 
 -421.37475m   89.8491m  700.0000m 
 -421.27475m   89.8506m  700.0000m 
 -421.17475m   89.8521m  700.0000m 
 -421.07475m   89.8536m  700.0000m 
 -420.97475m   89.8551m  700.0000m 
 -420.87475m   89.8566m  700.0000m 
 -420.77475m   89.8581m  700.0000m 
 -420.67475m   89.8596m  700.0000m 
 -420.57475m   89.8611m  700.0000m 
 -420.47475m   89.8626m  700.0000m 
 -420.37475m   89.8641m  700.0000m 
 -420.27475m   89.8656m  700.0000m 
 -420.17475m   89.8671m  700.0000m 
 -420.07475m   89.8686m  700.0000m 
 -419.97475m   89.8701m  700.0000m 
 -419.87475m   89.8716m  700.0000m 
 -419.77475m   89.8731m  700.0000m 
 -419.67475m   89.8746m  700.0000m 
 -419.57475m   89.8761m  700.0000m 
 -419.47475m   89.8776m  700.0000m 
 -419.37475m   89.8791m  700.0000m 
 -419.27475m   89.8806m  700.0000m 
 -419.17475m   89.8821m  700.0000m 
 -419.07475m   89.8836m  700.0000m 
 -418.97475m   89.8851m  700.0000m 
 -418.87475m   89.8866m  700.0000m 
 -418.77475m   89.8881m  700.0000m 
 -418.67475m   89.8897m  700.0000m 
 -418.57475m   89.8912m  700.0000m 
 -418.47475m   89.8927m  700.0000m 
 -418.37475m   89.8942m  700.0000m 
 -418.27475m   89.8957m  700.0000m 
 -418.17475m   89.8972m  700.0000m 
 -418.07475m   89.8987m  700.0000m 
 -417.97475m   89.9003m  700.0000m 
 -417.87475m   89.9018m  700.0000m 
 -417.77475m   89.9033m  700.0000m 
 -417.67475m   89.9048m  700.0000m 
 -417.57475m   89.9063m  700.0000m 
 -417.47475m   89.9078m  700.0000m 
 -417.37475m   89.9094m  700.0000m 
 -417.27475m   89.9109m  700.0000m 
 -417.17475m   89.9124m  700.0000m 
 -417.07475m   89.9139m  700.0000m 
 -416.97475m   89.9154m  700.0000m 
 -416.87475m   89.9170m  700.0000m 
 -416.77475m   89.9185m  700.0000m 
 -416.67475m   89.9200m  700.0000m 
 -416.57475m   89.9215m  700.0000m 
 -416.47475m   89.9231m  700.0000m 
 -416.37475m   89.9246m  700.0000m 
 -416.27475m   89.9261m  700.0000m 
 -416.17475m   89.9276m  700.0000m 
 -416.07475m   89.9292m  700.0000m 
 -415.97475m   89.9307m  700.0000m 
 -415.87475m   89.9322m  700.0000m 
 -415.77475m   89.9338m  700.0000m 
 -415.67475m   89.9353m  700.0000m 
 -415.57475m   89.9368m  700.0000m 
 -415.47475m   89.9384m  700.0000m 
 -415.37475m   89.9399m  700.0000m 
 -415.27475m   89.9414m  700.0000m 
 -415.17475m   89.9430m  700.0000m 
 -415.07475m   89.9445m  700.0000m 
 -414.97475m   89.9460m  700.0000m 
 -414.87475m   89.9476m  700.0000m 
 -414.77475m   89.9491m  700.0000m 
 -414.67475m   89.9507m  700.0000m 
 -414.57475m   89.9522m  700.0000m 
 -414.47475m   89.9537m  700.0000m 
 -414.37475m   89.9553m  700.0000m 
 -414.27475m   89.9568m  700.0000m 
 -414.17475m   89.9584m  700.0000m 
 -414.07475m   89.9599m  700.0000m 
 -413.97475m   89.9615m  700.0000m 
 -413.87475m   89.9630m  700.0000m 
 -413.77475m   89.9646m  700.0000m 
 -413.67475m   89.9661m  700.0000m 
 -413.57475m   89.9676m  700.0000m 
 -413.47475m   89.9692m  700.0000m 
 -413.37475m   89.9707m  700.0000m 
 -413.27475m   89.9723m  700.0000m 
 -413.17475m   89.9738m  700.0000m 
 -413.07475m   89.9754m  700.0000m 
 -412.97475m   89.9769m  700.0000m 
 -412.87475m   89.9785m  700.0000m 
 -412.77475m   89.9801m  700.0000m 
 -412.67475m   89.9816m  700.0000m 
 -412.57475m   89.9832m  700.0000m 
 -412.47475m   89.9847m  700.0000m 
 -412.37475m   89.9863m  700.0000m 
 -412.27475m   89.9878m  700.0000m 
 -412.17475m   89.9894m  700.0000m 
 -412.07475m   89.9910m  700.0000m 
 -411.97475m   89.9925m  700.0000m 
 -411.87475m   89.9941m  700.0000m 
 -411.77475m   89.9956m  700.0000m 
 -411.67475m   89.9972m  700.0000m 
 -411.57475m   89.9988m  700.0000m 
 -411.47475m   90.0003m  700.0000m 
 -411.37475m   90.0019m  700.0000m 
 -411.27475m   90.0035m  700.0000m 
 -411.17475m   90.0050m  700.0000m 
 -411.07475m   90.0066m  700.0000m 
 -410.97475m   90.0082m  700.0000m 
 -410.87475m   90.0097m  700.0000m 
 -410.77475m   90.0113m  700.0000m 
 -410.67475m   90.0129m  700.0000m 
 -410.57475m   90.0144m  700.0000m 
 -410.47475m   90.0160m  700.0000m 
 -410.37475m   90.0176m  700.0000m 
 -410.27475m   90.0191m  700.0000m 
 -410.17475m   90.0207m  700.0000m 
 -410.07475m   90.0223m  700.0000m 
 -409.97475m   90.0239m  700.0000m 
 -409.87475m   90.0254m  700.0000m 
 -409.77475m   90.0270m  700.0000m 
 -409.67475m   90.0286m  700.0000m 
 -409.57475m   90.0302m  700.0000m 
 -409.47475m   90.0318m  700.0000m 
 -409.37475m   90.0333m  700.0000m 
 -409.27475m   90.0349m  700.0000m 
 -409.17475m   90.0365m  700.0000m 
 -409.07475m   90.0381m  700.0000m 
 -408.97475m   90.0397m  700.0000m 
 -408.87475m   90.0412m  700.0000m 
 -408.77475m   90.0428m  700.0000m 
 -408.67475m   90.0444m  700.0000m 
 -408.57475m   90.0460m  700.0000m 
 -408.47475m   90.0476m  700.0000m 
 -408.37475m   90.0492m  700.0000m 
 -408.27475m   90.0508m  700.0000m 
 -408.17475m   90.0523m  700.0000m 
 -408.07475m   90.0539m  700.0000m 
 -407.97475m   90.0555m  700.0000m 
 -407.87475m   90.0571m  700.0000m 
 -407.77475m   90.0587m  700.0000m 
 -407.67475m   90.0603m  700.0000m 
 -407.57475m   90.0619m  700.0000m 
 -407.47475m   90.0635m  700.0000m 
 -407.37475m   90.0651m  700.0000m 
 -407.27475m   90.0667m  700.0000m 
 -407.17475m   90.0683m  700.0000m 
 -407.07475m   90.0699m  700.0000m 
 -406.97475m   90.0715m  700.0000m 
 -406.87475m   90.0731m  700.0000m 
 -406.77475m   90.0747m  700.0000m 
 -406.67475m   90.0763m  700.0000m 
 -406.57475m   90.0779m  700.0000m 
 -406.47475m   90.0795m  700.0000m 
 -406.37475m   90.0811m  700.0000m 
 -406.27475m   90.0827m  700.0000m 
 -406.17475m   90.0843m  700.0000m 
 -406.07475m   90.0859m  700.0000m 
 -405.97475m   90.0875m  700.0000m 
 -405.87475m   90.0891m  700.0000m 
 -405.77475m   90.0907m  700.0000m 
 -405.67475m   90.0923m  700.0000m 
 -405.57475m   90.0939m  700.0000m 
 -405.47475m   90.0955m  700.0000m 
 -405.37475m   90.0971m  700.0000m 
 -405.27475m   90.0988m  700.0000m 
 -405.17475m   90.1004m  700.0000m 
 -405.07475m   90.1020m  700.0000m 
 -404.97475m   90.1036m  700.0000m 
 -404.87475m   90.1052m  700.0000m 
 -404.77475m   90.1068m  700.0000m 
 -404.67475m   90.1084m  700.0000m 
 -404.57475m   90.1101m  700.0000m 
 -404.47475m   90.1117m  700.0000m 
 -404.37475m   90.1133m  700.0000m 
 -404.27475m   90.1149m  700.0000m 
 -404.17475m   90.1165m  700.0000m 
 -404.07475m   90.1181m  700.0000m 
 -403.97475m   90.1198m  700.0000m 
 -403.87475m   90.1214m  700.0000m 
 -403.77475m   90.1230m  700.0000m 
 -403.67475m   90.1246m  700.0000m 
 -403.57475m   90.1263m  700.0000m 
 -403.47475m   90.1279m  700.0000m 
 -403.37475m   90.1295m  700.0000m 
 -403.27475m   90.1311m  700.0000m 
 -403.17475m   90.1328m  700.0000m 
 -403.07475m   90.1344m  700.0000m 
 -402.97475m   90.1360m  700.0000m 
 -402.87475m   90.1377m  700.0000m 
 -402.77475m   90.1393m  700.0000m 
 -402.67475m   90.1409m  700.0000m 
 -402.57475m   90.1425m  700.0000m 
 -402.47475m   90.1442m  700.0000m 
 -402.37475m   90.1458m  700.0000m 
 -402.27475m   90.1475m  700.0000m 
 -402.17475m   90.1491m  700.0000m 
 -402.07475m   90.1507m  700.0000m 
 -401.97475m   90.1524m  700.0000m 
 -401.87475m   90.1540m  700.0000m 
 -401.77475m   90.1556m  700.0000m 
 -401.67475m   90.1573m  700.0000m 
 -401.57475m   90.1589m  700.0000m 
 -401.47475m   90.1606m  700.0000m 
 -401.37475m   90.1622m  700.0000m 
 -401.27475m   90.1638m  700.0000m 
 -401.17475m   90.1655m  700.0000m 
 -401.07475m   90.1671m  700.0000m 
 -400.97475m   90.1688m  700.0000m 
 -400.87475m   90.1704m  700.0000m 
 -400.77475m   90.1721m  700.0000m 
 -400.67475m   90.1737m  700.0000m 
 -400.57475m   90.1754m  700.0000m 
 -400.47475m   90.1770m  700.0000m 
 -400.37475m   90.1787m  700.0000m 
 -400.27475m   90.1803m  700.0000m 
 -400.17475m   90.1820m  700.0000m 
 -400.07475m   90.1836m  700.0000m 
 -399.97475m   90.1853m  700.0000m 
 -399.87475m   90.1869m  700.0000m 
 -399.77475m   90.1886m  700.0000m 
 -399.67475m   90.1902m  700.0000m 
 -399.57475m   90.1919m  700.0000m 
 -399.47475m   90.1935m  700.0000m 
 -399.37475m   90.1952m  700.0000m 
 -399.27475m   90.1969m  700.0000m 
 -399.17475m   90.1985m  700.0000m 
 -399.07475m   90.2002m  700.0000m 
 -398.97475m   90.2018m  700.0000m 
 -398.87475m   90.2035m  700.0000m 
 -398.77475m   90.2052m  700.0000m 
 -398.67475m   90.2068m  700.0000m 
 -398.57475m   90.2085m  700.0000m 
 -398.47475m   90.2102m  700.0000m 
 -398.37475m   90.2118m  700.0000m 
 -398.27475m   90.2135m  700.0000m 
 -398.17475m   90.2152m  700.0000m 
 -398.07475m   90.2168m  700.0000m 
 -397.97475m   90.2185m  700.0000m 
 -397.87475m   90.2202m  700.0000m 
 -397.77475m   90.2218m  700.0000m 
 -397.67475m   90.2235m  700.0000m 
 -397.57475m   90.2252m  700.0000m 
 -397.47475m   90.2269m  700.0000m 
 -397.37475m   90.2285m  700.0000m 
 -397.27475m   90.2302m  700.0000m 
 -397.17475m   90.2319m  700.0000m 
 -397.07475m   90.2336m  700.0000m 
 -396.97475m   90.2352m  700.0000m 
 -396.87475m   90.2369m  700.0000m 
 -396.77475m   90.2386m  700.0000m 
 -396.67475m   90.2403m  700.0000m 
 -396.57475m   90.2420m  700.0000m 
 -396.47475m   90.2436m  700.0000m 
 -396.37475m   90.2453m  700.0000m 
 -396.27475m   90.2470m  700.0000m 
 -396.17475m   90.2487m  700.0000m 
 -396.07475m   90.2504m  700.0000m 
 -395.97475m   90.2521m  700.0000m 
 -395.87475m   90.2537m  700.0000m 
 -395.77475m   90.2554m  700.0000m 
 -395.67475m   90.2571m  700.0000m 
 -395.57475m   90.2588m  700.0000m 
 -395.47475m   90.2605m  700.0000m 
 -395.37475m   90.2622m  700.0000m 
 -395.27475m   90.2639m  700.0000m 
 -395.17475m   90.2656m  700.0000m 
 -395.07475m   90.2673m  700.0000m 
 -394.97475m   90.2690m  700.0000m 
 -394.87475m   90.2707m  700.0000m 
 -394.77475m   90.2724m  700.0000m 
 -394.67475m   90.2740m  700.0000m 
 -394.57475m   90.2757m  700.0000m 
 -394.47475m   90.2774m  700.0000m 
 -394.37475m   90.2791m  700.0000m 
 -394.27475m   90.2808m  700.0000m 
 -394.17475m   90.2825m  700.0000m 
 -394.07475m   90.2842m  700.0000m 
 -393.97475m   90.2859m  700.0000m 
 -393.87475m   90.2877m  700.0000m 
 -393.77475m   90.2894m  700.0000m 
 -393.67475m   90.2911m  700.0000m 
 -393.57475m   90.2928m  700.0000m 
 -393.47475m   90.2945m  700.0000m 
 -393.37475m   90.2962m  700.0000m 
 -393.27475m   90.2979m  700.0000m 
 -393.17475m   90.2996m  700.0000m 
 -393.07475m   90.3013m  700.0000m 
 -392.97475m   90.3030m  700.0000m 
 -392.87475m   90.3047m  700.0000m 
 -392.77475m   90.3064m  700.0000m 
 -392.67475m   90.3082m  700.0000m 
 -392.57475m   90.3099m  700.0000m 
 -392.47475m   90.3116m  700.0000m 
 -392.37475m   90.3133m  700.0000m 
 -392.27475m   90.3150m  700.0000m 
 -392.17475m   90.3167m  700.0000m 
 -392.07475m   90.3184m  700.0000m 
 -391.97475m   90.3202m  700.0000m 
 -391.87475m   90.3219m  700.0000m 
 -391.77475m   90.3236m  700.0000m 
 -391.67475m   90.3253m  700.0000m 
 -391.57475m   90.3271m  700.0000m 
 -391.47475m   90.3288m  700.0000m 
 -391.37475m   90.3305m  700.0000m 
 -391.27475m   90.3322m  700.0000m 
 -391.17475m   90.3339m  700.0000m 
 -391.07475m   90.3357m  700.0000m 
 -390.97475m   90.3374m  700.0000m 
 -390.87475m   90.3391m  700.0000m 
 -390.77475m   90.3409m  700.0000m 
 -390.67475m   90.3426m  700.0000m 
 -390.57475m   90.3443m  700.0000m 
 -390.47475m   90.3461m  700.0000m 
 -390.37475m   90.3478m  700.0000m 
 -390.27475m   90.3495m  700.0000m 
 -390.17475m   90.3513m  700.0000m 
 -390.07475m   90.3530m  700.0000m 
 -389.97475m   90.3547m  700.0000m 
 -389.87475m   90.3565m  700.0000m 
 -389.77475m   90.3582m  700.0000m 
 -389.67475m   90.3599m  700.0000m 
 -389.57475m   90.3617m  700.0000m 
 -389.47475m   90.3634m  700.0000m 
 -389.37475m   90.3652m  700.0000m 
 -389.27475m   90.3669m  700.0000m 
 -389.17475m   90.3686m  700.0000m 
 -389.07475m   90.3704m  700.0000m 
 -388.97475m   90.3721m  700.0000m 
 -388.87475m   90.3739m  700.0000m 
 -388.77475m   90.3756m  700.0000m 
 -388.67475m   90.3774m  700.0000m 
 -388.57475m   90.3791m  700.0000m 
 -388.47475m   90.3809m  700.0000m 
 -388.37475m   90.3826m  700.0000m 
 -388.27475m   90.3844m  700.0000m 
 -388.17475m   90.3861m  700.0000m 
 -388.07475m   90.3879m  700.0000m 
 -387.97475m   90.3896m  700.0000m 
 -387.87475m   90.3914m  700.0000m 
 -387.77475m   90.3931m  700.0000m 
 -387.67475m   90.3949m  700.0000m 
 -387.57475m   90.3966m  700.0000m 
 -387.47475m   90.3984m  700.0000m 
 -387.37475m   90.4002m  700.0000m 
 -387.27475m   90.4019m  700.0000m 
 -387.17475m   90.4037m  700.0000m 
 -387.07475m   90.4054m  700.0000m 
 -386.97475m   90.4072m  700.0000m 
 -386.87475m   90.4090m  700.0000m 
 -386.77475m   90.4107m  700.0000m 
 -386.67475m   90.4125m  700.0000m 
 -386.57475m   90.4143m  700.0000m 
 -386.47475m   90.4160m  700.0000m 
 -386.37475m   90.4178m  700.0000m 
 -386.27475m   90.4196m  700.0000m 
 -386.17475m   90.4213m  700.0000m 
 -386.07475m   90.4231m  700.0000m 
 -385.97475m   90.4249m  700.0000m 
 -385.87475m   90.4266m  700.0000m 
 -385.77475m   90.4284m  700.0000m 
 -385.67475m   90.4302m  700.0000m 
 -385.57475m   90.4319m  700.0000m 
 -385.47475m   90.4337m  700.0000m 
 -385.37475m   90.4355m  700.0000m 
 -385.27475m   90.4373m  700.0000m 
 -385.17475m   90.4391m  700.0000m 
 -385.07475m   90.4408m  700.0000m 
 -384.97475m   90.4426m  700.0000m 
 -384.87475m   90.4444m  700.0000m 
 -384.77475m   90.4462m  700.0000m 
 -384.67475m   90.4480m  700.0000m 
 -384.57475m   90.4497m  700.0000m 
 -384.47475m   90.4515m  700.0000m 
 -384.37475m   90.4533m  700.0000m 
 -384.27475m   90.4551m  700.0000m 
 -384.17475m   90.4569m  700.0000m 
 -384.07475m   90.4587m  700.0000m 
 -383.97475m   90.4604m  700.0000m 
 -383.87475m   90.4622m  700.0000m 
 -383.77475m   90.4640m  700.0000m 
 -383.67475m   90.4658m  700.0000m 
 -383.57475m   90.4676m  700.0000m 
 -383.47475m   90.4694m  700.0000m 
 -383.37475m   90.4712m  700.0000m 
 -383.27475m   90.4730m  700.0000m 
 -383.17475m   90.4748m  700.0000m 
 -383.07475m   90.4766m  700.0000m 
 -382.97475m   90.4784m  700.0000m 
 -382.87475m   90.4802m  700.0000m 
 -382.77475m   90.4820m  700.0000m 
 -382.67475m   90.4838m  700.0000m 
 -382.57475m   90.4856m  700.0000m 
 -382.47475m   90.4874m  700.0000m 
 -382.37475m   90.4892m  700.0000m 
 -382.27475m   90.4910m  700.0000m 
 -382.17475m   90.4928m  700.0000m 
 -382.07475m   90.4946m  700.0000m 
 -381.97475m   90.4964m  700.0000m 
 -381.87475m   90.4982m  700.0000m 
 -381.77475m   90.5000m  700.0000m 
 -381.67475m   90.5018m  700.0000m 
 -381.57475m   90.5036m  700.0000m 
 -381.47475m   90.5054m  700.0000m 
 -381.37475m   90.5072m  700.0000m 
 -381.27475m   90.5090m  700.0000m 
 -381.17475m   90.5109m  700.0000m 
 -381.07475m   90.5127m  700.0000m 
 -380.97475m   90.5145m  700.0000m 
 -380.87475m   90.5163m  700.0000m 
 -380.77475m   90.5181m  700.0000m 
 -380.67475m   90.5199m  700.0000m 
 -380.57475m   90.5218m  700.0000m 
 -380.47475m   90.5236m  700.0000m 
 -380.37475m   90.5254m  700.0000m 
 -380.27475m   90.5272m  700.0000m 
 -380.17475m   90.5290m  700.0000m 
 -380.07475m   90.5309m  700.0000m 
 -379.97475m   90.5327m  700.0000m 
 -379.87475m   90.5345m  700.0000m 
 -379.77475m   90.5363m  700.0000m 
 -379.67475m   90.5382m  700.0000m 
 -379.57475m   90.5400m  700.0000m 
 -379.47475m   90.5418m  700.0000m 
 -379.37475m   90.5436m  700.0000m 
 -379.27475m   90.5455m  700.0000m 
 -379.17475m   90.5473m  700.0000m 
 -379.07475m   90.5491m  700.0000m 
 -378.97475m   90.5510m  700.0000m 
 -378.87475m   90.5528m  700.0000m 
 -378.77475m   90.5546m  700.0000m 
 -378.67475m   90.5565m  700.0000m 
 -378.57475m   90.5583m  700.0000m 
 -378.47475m   90.5601m  700.0000m 
 -378.37475m   90.5620m  700.0000m 
 -378.27475m   90.5638m  700.0000m 
 -378.17475m   90.5657m  700.0000m 
 -378.07475m   90.5675m  700.0000m 
 -377.97475m   90.5693m  700.0000m 
 -377.87475m   90.5712m  700.0000m 
 -377.77475m   90.5730m  700.0000m 
 -377.67475m   90.5749m  700.0000m 
 -377.57475m   90.5767m  700.0000m 
 -377.47475m   90.5786m  700.0000m 
 -377.37475m   90.5804m  700.0000m 
 -377.27475m   90.5822m  700.0000m 
 -377.17475m   90.5841m  700.0000m 
 -377.07475m   90.5859m  700.0000m 
 -376.97475m   90.5878m  700.0000m 
 -376.87475m   90.5896m  700.0000m 
 -376.77475m   90.5915m  700.0000m 
 -376.67475m   90.5934m  700.0000m 
 -376.57475m   90.5952m  700.0000m 
 -376.47475m   90.5971m  700.0000m 
 -376.37475m   90.5989m  700.0000m 
 -376.27475m   90.6008m  700.0000m 
 -376.17475m   90.6026m  700.0000m 
 -376.07475m   90.6045m  700.0000m 
 -375.97475m   90.6064m  700.0000m 
 -375.87475m   90.6082m  700.0000m 
 -375.77475m   90.6101m  700.0000m 
 -375.67475m   90.6119m  700.0000m 
 -375.57475m   90.6138m  700.0000m 
 -375.47475m   90.6157m  700.0000m 
 -375.37475m   90.6175m  700.0000m 
 -375.27475m   90.6194m  700.0000m 
 -375.17475m   90.6213m  700.0000m 
 -375.07475m   90.6231m  700.0000m 
 -374.97475m   90.6250m  700.0000m 
 -374.87475m   90.6269m  700.0000m 
 -374.77475m   90.6287m  700.0000m 
 -374.67475m   90.6306m  700.0000m 
 -374.57475m   90.6325m  700.0000m 
 -374.47475m   90.6344m  700.0000m 
 -374.37475m   90.6362m  700.0000m 
 -374.27475m   90.6381m  700.0000m 
 -374.17475m   90.6400m  700.0000m 
 -374.07475m   90.6419m  700.0000m 
 -373.97475m   90.6437m  700.0000m 
 -373.87475m   90.6456m  700.0000m 
 -373.77475m   90.6475m  700.0000m 
 -373.67475m   90.6494m  700.0000m 
 -373.57475m   90.6513m  700.0000m 
 -373.47475m   90.6531m  700.0000m 
 -373.37475m   90.6550m  700.0000m 
 -373.27475m   90.6569m  700.0000m 
 -373.17475m   90.6588m  700.0000m 
 -373.07475m   90.6607m  700.0000m 
 -372.97475m   90.6626m  700.0000m 
 -372.87475m   90.6645m  700.0000m 
 -372.77475m   90.6663m  700.0000m 
 -372.67475m   90.6682m  700.0000m 
 -372.57475m   90.6701m  700.0000m 
 -372.47475m   90.6720m  700.0000m 
 -372.37475m   90.6739m  700.0000m 
 -372.27475m   90.6758m  700.0000m 
 -372.17475m   90.6777m  700.0000m 
 -372.07475m   90.6796m  700.0000m 
 -371.97475m   90.6815m  700.0000m 
 -371.87475m   90.6834m  700.0000m 
 -371.77475m   90.6853m  700.0000m 
 -371.67475m   90.6872m  700.0000m 
 -371.57475m   90.6891m  700.0000m 
 -371.47475m   90.6910m  700.0000m 
 -371.37475m   90.6929m  700.0000m 
 -371.27475m   90.6948m  700.0000m 
 -371.17475m   90.6967m  700.0000m 
 -371.07475m   90.6986m  700.0000m 
 -370.97475m   90.7005m  700.0000m 
 -370.87475m   90.7024m  700.0000m 
 -370.77475m   90.7043m  700.0000m 
 -370.67475m   90.7062m  700.0000m 
 -370.57475m   90.7081m  700.0000m 
 -370.47475m   90.7101m  700.0000m 
 -370.37475m   90.7120m  700.0000m 
 -370.27475m   90.7139m  700.0000m 
 -370.17475m   90.7158m  700.0000m 
 -370.07475m   90.7177m  700.0000m 
 -369.97475m   90.7196m  700.0000m 
 -369.87475m   90.7215m  700.0000m 
 -369.77475m   90.7235m  700.0000m 
 -369.67475m   90.7254m  700.0000m 
 -369.57475m   90.7273m  700.0000m 
 -369.47475m   90.7292m  700.0000m 
 -369.37475m   90.7311m  700.0000m 
 -369.27475m   90.7331m  700.0000m 
 -369.17475m   90.7350m  700.0000m 
 -369.07475m   90.7369m  700.0000m 
 -368.97475m   90.7388m  700.0000m 
 -368.87475m   90.7408m  700.0000m 
 -368.77475m   90.7427m  700.0000m 
 -368.67475m   90.7446m  700.0000m 
 -368.57475m   90.7465m  700.0000m 
 -368.47475m   90.7485m  700.0000m 
 -368.37475m   90.7504m  700.0000m 
 -368.27475m   90.7523m  700.0000m 
 -368.17475m   90.7543m  700.0000m 
 -368.07475m   90.7562m  700.0000m 
 -367.97475m   90.7581m  700.0000m 
 -367.87475m   90.7601m  700.0000m 
 -367.77475m   90.7620m  700.0000m 
 -367.67475m   90.7640m  700.0000m 
 -367.57475m   90.7659m  700.0000m 
 -367.47475m   90.7678m  700.0000m 
 -367.37475m   90.7698m  700.0000m 
 -367.27475m   90.7717m  700.0000m 
 -367.17475m   90.7737m  700.0000m 
 -367.07475m   90.7756m  700.0000m 
 -366.97475m   90.7775m  700.0000m 
 -366.87475m   90.7795m  700.0000m 
 -366.77475m   90.7814m  700.0000m 
 -366.67475m   90.7834m  700.0000m 
 -366.57475m   90.7853m  700.0000m 
 -366.47475m   90.7873m  700.0000m 
 -366.37475m   90.7892m  700.0000m 
 -366.27475m   90.7912m  700.0000m 
 -366.17475m   90.7931m  700.0000m 
 -366.07475m   90.7951m  700.0000m 
 -365.97475m   90.7970m  700.0000m 
 -365.87475m   90.7990m  700.0000m 
 -365.77475m   90.8010m  700.0000m 
 -365.67475m   90.8029m  700.0000m 
 -365.57475m   90.8049m  700.0000m 
 -365.47475m   90.8068m  700.0000m 
 -365.37475m   90.8088m  700.0000m 
 -365.27475m   90.8107m  700.0000m 
 -365.17475m   90.8127m  700.0000m 
 -365.07475m   90.8147m  700.0000m 
 -364.97475m   90.8166m  700.0000m 
 -364.87475m   90.8186m  700.0000m 
 -364.77475m   90.8206m  700.0000m 
 -364.67475m   90.8225m  700.0000m 
 -364.57475m   90.8245m  700.0000m 
 -364.47475m   90.8265m  700.0000m 
 -364.37475m   90.8284m  700.0000m 
 -364.27475m   90.8304m  700.0000m 
 -364.17475m   90.8324m  700.0000m 
 -364.07475m   90.8344m  700.0000m 
 -363.97475m   90.8363m  700.0000m 
 -363.87475m   90.8383m  700.0000m 
 -363.77475m   90.8403m  700.0000m 
 -363.67475m   90.8423m  700.0000m 
 -363.57475m   90.8442m  700.0000m 
 -363.47475m   90.8462m  700.0000m 
 -363.37475m   90.8482m  700.0000m 
 -363.27475m   90.8502m  700.0000m 
 -363.17475m   90.8522m  700.0000m 
 -363.07475m   90.8541m  700.0000m 
 -362.97475m   90.8561m  700.0000m 
 -362.87475m   90.8581m  700.0000m 
 -362.77475m   90.8601m  700.0000m 
 -362.67475m   90.8621m  700.0000m 
 -362.57475m   90.8641m  700.0000m 
 -362.47475m   90.8661m  700.0000m 
 -362.37475m   90.8680m  700.0000m 
 -362.27475m   90.8700m  700.0000m 
 -362.17475m   90.8720m  700.0000m 
 -362.07475m   90.8740m  700.0000m 
 -361.97475m   90.8760m  700.0000m 
 -361.87475m   90.8780m  700.0000m 
 -361.77475m   90.8800m  700.0000m 
 -361.67475m   90.8820m  700.0000m 
 -361.57475m   90.8840m  700.0000m 
 -361.47475m   90.8860m  700.0000m 
 -361.37475m   90.8880m  700.0000m 
 -361.27475m   90.8900m  700.0000m 
 -361.17475m   90.8920m  700.0000m 
 -361.07475m   90.8940m  700.0000m 
 -360.97475m   90.8960m  700.0000m 
 -360.87475m   90.8980m  700.0000m 
 -360.77475m   90.9000m  700.0000m 
 -360.67475m   90.9020m  700.0000m 
 -360.57475m   90.9040m  700.0000m 
 -360.47475m   90.9060m  700.0000m 
 -360.37475m   90.9080m  700.0000m 
 -360.27475m   90.9101m  700.0000m 
 -360.17475m   90.9121m  700.0000m 
 -360.07475m   90.9141m  700.0000m 
 -359.97475m   90.9161m  700.0000m 
 -359.87475m   90.9181m  700.0000m 
 -359.77475m   90.9201m  700.0000m 
 -359.67475m   90.9221m  700.0000m 
 -359.57475m   90.9242m  700.0000m 
 -359.47475m   90.9262m  700.0000m 
 -359.37475m   90.9282m  700.0000m 
 -359.27475m   90.9302m  700.0000m 
 -359.17475m   90.9322m  700.0000m 
 -359.07475m   90.9343m  700.0000m 
 -358.97475m   90.9363m  700.0000m 
 -358.87475m   90.9383m  700.0000m 
 -358.77475m   90.9403m  700.0000m 
 -358.67475m   90.9424m  700.0000m 
 -358.57475m   90.9444m  700.0000m 
 -358.47475m   90.9464m  700.0000m 
 -358.37475m   90.9484m  700.0000m 
 -358.27475m   90.9505m  700.0000m 
 -358.17475m   90.9525m  700.0000m 
 -358.07475m   90.9545m  700.0000m 
 -357.97475m   90.9566m  700.0000m 
 -357.87475m   90.9586m  700.0000m 
 -357.77475m   90.9606m  700.0000m 
 -357.67475m   90.9627m  700.0000m 
 -357.57475m   90.9647m  700.0000m 
 -357.47475m   90.9668m  700.0000m 
 -357.37475m   90.9688m  700.0000m 
 -357.27475m   90.9708m  700.0000m 
 -357.17475m   90.9729m  700.0000m 
 -357.07475m   90.9749m  700.0000m 
 -356.97475m   90.9770m  700.0000m 
 -356.87475m   90.9790m  700.0000m 
 -356.77475m   90.9811m  700.0000m 
 -356.67475m   90.9831m  700.0000m 
 -356.57475m   90.9852m  700.0000m 
 -356.47475m   90.9872m  700.0000m 
 -356.37475m   90.9893m  700.0000m 
 -356.27475m   90.9913m  700.0000m 
 -356.17475m   90.9934m  700.0000m 
 -356.07475m   90.9954m  700.0000m 
 -355.97475m   90.9975m  700.0000m 
 -355.87475m   90.9995m  700.0000m 
 -355.77475m   91.0016m  700.0000m 
 -355.67475m   91.0036m  700.0000m 
 -355.57475m   91.0057m  700.0000m 
 -355.47475m   91.0078m  700.0000m 
 -355.37475m   91.0098m  700.0000m 
 -355.27475m   91.0119m  700.0000m 
 -355.17475m   91.0139m  700.0000m 
 -355.07475m   91.0160m  700.0000m 
 -354.97475m   91.0181m  700.0000m 
 -354.87475m   91.0201m  700.0000m 
 -354.77475m   91.0222m  700.0000m 
 -354.67475m   91.0243m  700.0000m 
 -354.57475m   91.0263m  700.0000m 
 -354.47475m   91.0284m  700.0000m 
 -354.37475m   91.0305m  700.0000m 
 -354.27475m   91.0325m  700.0000m 
 -354.17475m   91.0346m  700.0000m 
 -354.07475m   91.0367m  700.0000m 
 -353.97475m   91.0388m  700.0000m 
 -353.87475m   91.0408m  700.0000m 
 -353.77475m   91.0429m  700.0000m 
 -353.67475m   91.0450m  700.0000m 
 -353.57475m   91.0471m  700.0000m 
 -353.47475m   91.0492m  700.0000m 
 -353.37475m   91.0512m  700.0000m 
 -353.27475m   91.0533m  700.0000m 
 -353.17475m   91.0554m  700.0000m 
 -353.07475m   91.0575m  700.0000m 
 -352.97475m   91.0596m  700.0000m 
 -352.87475m   91.0617m  700.0000m 
 -352.77475m   91.0638m  700.0000m 
 -352.67475m   91.0658m  700.0000m 
 -352.57475m   91.0679m  700.0000m 
 -352.47475m   91.0700m  700.0000m 
 -352.37475m   91.0721m  700.0000m 
 -352.27475m   91.0742m  700.0000m 
 -352.17475m   91.0763m  700.0000m 
 -352.07475m   91.0784m  700.0000m 
 -351.97475m   91.0805m  700.0000m 
 -351.87475m   91.0826m  700.0000m 
 -351.77475m   91.0847m  700.0000m 
 -351.67475m   91.0868m  700.0000m 
 -351.57475m   91.0889m  700.0000m 
 -351.47475m   91.0910m  700.0000m 
 -351.37475m   91.0931m  700.0000m 
 -351.27475m   91.0952m  700.0000m 
 -351.17475m   91.0973m  700.0000m 
 -351.07475m   91.0994m  700.0000m 
 -350.97475m   91.1015m  700.0000m 
 -350.87475m   91.1036m  700.0000m 
 -350.77475m   91.1057m  700.0000m 
 -350.67475m   91.1078m  700.0000m 
 -350.57475m   91.1100m  700.0000m 
 -350.47475m   91.1121m  700.0000m 
 -350.37475m   91.1142m  700.0000m 
 -350.27475m   91.1163m  700.0000m 
 -350.17475m   91.1184m  700.0000m 
 -350.07475m   91.1205m  700.0000m 
 -349.97475m   91.1226m  700.0000m 
 -349.87475m   91.1248m  700.0000m 
 -349.77475m   91.1269m  700.0000m 
 -349.67475m   91.1290m  700.0000m 
 -349.57475m   91.1311m  700.0000m 
 -349.47475m   91.1332m  700.0000m 
 -349.37475m   91.1354m  700.0000m 
 -349.27475m   91.1375m  700.0000m 
 -349.17475m   91.1396m  700.0000m 
 -349.07475m   91.1417m  700.0000m 
 -348.97475m   91.1439m  700.0000m 
 -348.87475m   91.1460m  700.0000m 
 -348.77475m   91.1481m  700.0000m 
 -348.67475m   91.1503m  700.0000m 
 -348.57475m   91.1524m  700.0000m 
 -348.47475m   91.1545m  700.0000m 
 -348.37475m   91.1567m  700.0000m 
 -348.27475m   91.1588m  700.0000m 
 -348.17475m   91.1609m  700.0000m 
 -348.07475m   91.1631m  700.0000m 
 -347.97475m   91.1652m  700.0000m 
 -347.87475m   91.1674m  700.0000m 
 -347.77475m   91.1695m  700.0000m 
 -347.67475m   91.1716m  700.0000m 
 -347.57475m   91.1738m  700.0000m 
 -347.47475m   91.1759m  700.0000m 
 -347.37475m   91.1781m  700.0000m 
 -347.27475m   91.1802m  700.0000m 
 -347.17475m   91.1824m  700.0000m 
 -347.07475m   91.1845m  700.0000m 
 -346.97475m   91.1867m  700.0000m 
 -346.87475m   91.1888m  700.0000m 
 -346.77475m   91.1910m  700.0000m 
 -346.67475m   91.1931m  700.0000m 
 -346.57475m   91.1953m  700.0000m 
 -346.47475m   91.1974m  700.0000m 
 -346.37475m   91.1996m  700.0000m 
 -346.27475m   91.2017m  700.0000m 
 -346.17475m   91.2039m  700.0000m 
 -346.07475m   91.2061m  700.0000m 
 -345.97475m   91.2082m  700.0000m 
 -345.87475m   91.2104m  700.0000m 
 -345.77475m   91.2125m  700.0000m 
 -345.67475m   91.2147m  700.0000m 
 -345.57475m   91.2169m  700.0000m 
 -345.47475m   91.2190m  700.0000m 
 -345.37475m   91.2212m  700.0000m 
 -345.27475m   91.2234m  700.0000m 
 -345.17475m   91.2255m  700.0000m 
 -345.07475m   91.2277m  700.0000m 
 -344.97475m   91.2299m  700.0000m 
 -344.87475m   91.2321m  700.0000m 
 -344.77475m   91.2342m  700.0000m 
 -344.67475m   91.2364m  700.0000m 
 -344.57475m   91.2386m  700.0000m 
 -344.47475m   91.2408m  700.0000m 
 -344.37475m   91.2429m  700.0000m 
 -344.27475m   91.2451m  700.0000m 
 -344.17475m   91.2473m  700.0000m 
 -344.07475m   91.2495m  700.0000m 
 -343.97475m   91.2517m  700.0000m 
 -343.87475m   91.2538m  700.0000m 
 -343.77475m   91.2560m  700.0000m 
 -343.67475m   91.2582m  700.0000m 
 -343.57475m   91.2604m  700.0000m 
 -343.47475m   91.2626m  700.0000m 
 -343.37475m   91.2648m  700.0000m 
 -343.27475m   91.2670m  700.0000m 
 -343.17475m   91.2692m  700.0000m 
 -343.07475m   91.2714m  700.0000m 
 -342.97475m   91.2735m  700.0000m 
 -342.87475m   91.2757m  700.0000m 
 -342.77475m   91.2779m  700.0000m 
 -342.67475m   91.2801m  700.0000m 
 -342.57475m   91.2823m  700.0000m 
 -342.47475m   91.2845m  700.0000m 
 -342.37475m   91.2867m  700.0000m 
 -342.27475m   91.2889m  700.0000m 
 -342.17475m   91.2911m  700.0000m 
 -342.07475m   91.2933m  700.0000m 
 -341.97475m   91.2955m  700.0000m 
 -341.87475m   91.2977m  700.0000m 
 -341.77475m   91.3000m  700.0000m 
 -341.67475m   91.3022m  700.0000m 
 -341.57475m   91.3044m  700.0000m 
 -341.47475m   91.3066m  700.0000m 
 -341.37475m   91.3088m  700.0000m 
 -341.27475m   91.3110m  700.0000m 
 -341.17475m   91.3132m  700.0000m 
 -341.07475m   91.3154m  700.0000m 
 -340.97475m   91.3177m  700.0000m 
 -340.87475m   91.3199m  700.0000m 
 -340.77475m   91.3221m  700.0000m 
 -340.67475m   91.3243m  700.0000m 
 -340.57475m   91.3265m  700.0000m 
 -340.47475m   91.3288m  700.0000m 
 -340.37475m   91.3310m  700.0000m 
 -340.27475m   91.3332m  700.0000m 
 -340.17475m   91.3354m  700.0000m 
 -340.07475m   91.3377m  700.0000m 
 -339.97475m   91.3399m  700.0000m 
 -339.87475m   91.3421m  700.0000m 
 -339.77475m   91.3443m  700.0000m 
 -339.67475m   91.3466m  700.0000m 
 -339.57475m   91.3488m  700.0000m 
 -339.47475m   91.3510m  700.0000m 
 -339.37475m   91.3533m  700.0000m 
 -339.27475m   91.3555m  700.0000m 
 -339.17475m   91.3577m  700.0000m 
 -339.07475m   91.3600m  700.0000m 
 -338.97475m   91.3622m  700.0000m 
 -338.87475m   91.3645m  700.0000m 
 -338.77475m   91.3667m  700.0000m 
 -338.67475m   91.3689m  700.0000m 
 -338.57475m   91.3712m  700.0000m 
 -338.47475m   91.3734m  700.0000m 
 -338.37475m   91.3757m  700.0000m 
 -338.27475m   91.3779m  700.0000m 
 -338.17475m   91.3802m  700.0000m 
 -338.07475m   91.3824m  700.0000m 
 -337.97475m   91.3847m  700.0000m 
 -337.87475m   91.3869m  700.0000m 
 -337.77475m   91.3892m  700.0000m 
 -337.67475m   91.3914m  700.0000m 
 -337.57475m   91.3937m  700.0000m 
 -337.47475m   91.3959m  700.0000m 
 -337.37475m   91.3982m  700.0000m 
 -337.27475m   91.4005m  700.0000m 
 -337.17475m   91.4027m  700.0000m 
 -337.07475m   91.4050m  700.0000m 
 -336.97475m   91.4072m  700.0000m 
 -336.87475m   91.4095m  700.0000m 
 -336.77475m   91.4118m  700.0000m 
 -336.67475m   91.4140m  700.0000m 
 -336.57475m   91.4163m  700.0000m 
 -336.47475m   91.4186m  700.0000m 
 -336.37475m   91.4208m  700.0000m 
 -336.27475m   91.4231m  700.0000m 
 -336.17475m   91.4254m  700.0000m 
 -336.07475m   91.4276m  700.0000m 
 -335.97475m   91.4299m  700.0000m 
 -335.87475m   91.4322m  700.0000m 
 -335.77475m   91.4345m  700.0000m 
 -335.67475m   91.4367m  700.0000m 
 -335.57475m   91.4390m  700.0000m 
 -335.47475m   91.4413m  700.0000m 
 -335.37475m   91.4436m  700.0000m 
 -335.27475m   91.4459m  700.0000m 
 -335.17475m   91.4481m  700.0000m 
 -335.07475m   91.4504m  700.0000m 
 -334.97475m   91.4527m  700.0000m 
 -334.87475m   91.4550m  700.0000m 
 -334.77475m   91.4573m  700.0000m 
 -334.67475m   91.4596m  700.0000m 
 -334.57475m   91.4619m  700.0000m 
 -334.47475m   91.4642m  700.0000m 
 -334.37475m   91.4664m  700.0000m 
 -334.27475m   91.4687m  700.0000m 
 -334.17475m   91.4710m  700.0000m 
 -334.07475m   91.4733m  700.0000m 
 -333.97475m   91.4756m  700.0000m 
 -333.87475m   91.4779m  700.0000m 
 -333.77475m   91.4802m  700.0000m 
 -333.67475m   91.4825m  700.0000m 
 -333.57475m   91.4848m  700.0000m 
 -333.47475m   91.4871m  700.0000m 
 -333.37475m   91.4894m  700.0000m 
 -333.27475m   91.4917m  700.0000m 
 -333.17475m   91.4940m  700.0000m 
 -333.07475m   91.4964m  700.0000m 
 -332.97475m   91.4987m  700.0000m 
 -332.87475m   91.5010m  700.0000m 
 -332.77475m   91.5033m  700.0000m 
 -332.67475m   91.5056m  700.0000m 
 -332.57475m   91.5079m  700.0000m 
 -332.47475m   91.5102m  700.0000m 
 -332.37475m   91.5125m  700.0000m 
 -332.27475m   91.5149m  700.0000m 
 -332.17475m   91.5172m  700.0000m 
 -332.07475m   91.5195m  700.0000m 
 -331.97475m   91.5218m  700.0000m 
 -331.87475m   91.5241m  700.0000m 
 -331.77475m   91.5265m  700.0000m 
 -331.67475m   91.5288m  700.0000m 
 -331.57475m   91.5311m  700.0000m 
 -331.47475m   91.5334m  700.0000m 
 -331.37475m   91.5358m  700.0000m 
 -331.27475m   91.5381m  700.0000m 
 -331.17475m   91.5404m  700.0000m 
 -331.07475m   91.5427m  700.0000m 
 -330.97475m   91.5451m  700.0000m 
 -330.87475m   91.5474m  700.0000m 
 -330.77475m   91.5497m  700.0000m 
 -330.67475m   91.5521m  700.0000m 
 -330.57475m   91.5544m  700.0000m 
 -330.47475m   91.5568m  700.0000m 
 -330.37475m   91.5591m  700.0000m 
 -330.27475m   91.5614m  700.0000m 
 -330.17475m   91.5638m  700.0000m 
 -330.07475m   91.5661m  700.0000m 
 -329.97475m   91.5685m  700.0000m 
 -329.87475m   91.5708m  700.0000m 
 -329.77475m   91.5732m  700.0000m 
 -329.67475m   91.5755m  700.0000m 
 -329.57475m   91.5779m  700.0000m 
 -329.47475m   91.5802m  700.0000m 
 -329.37475m   91.5826m  700.0000m 
 -329.27475m   91.5849m  700.0000m 
 -329.17475m   91.5873m  700.0000m 
 -329.07475m   91.5896m  700.0000m 
 -328.97475m   91.5920m  700.0000m 
 -328.87475m   91.5943m  700.0000m 
 -328.77475m   91.5967m  700.0000m 
 -328.67475m   91.5991m  700.0000m 
 -328.57475m   91.6014m  700.0000m 
 -328.47475m   91.6038m  700.0000m 
 -328.37475m   91.6061m  700.0000m 
 -328.27475m   91.6085m  700.0000m 
 -328.17475m   91.6109m  700.0000m 
 -328.07475m   91.6132m  700.0000m 
 -327.97475m   91.6156m  700.0000m 
 -327.87475m   91.6180m  700.0000m 
 -327.77475m   91.6204m  700.0000m 
 -327.67475m   91.6227m  700.0000m 
 -327.57475m   91.6251m  700.0000m 
 -327.47475m   91.6275m  700.0000m 
 -327.37475m   91.6298m  700.0000m 
 -327.27475m   91.6322m  700.0000m 
 -327.17475m   91.6346m  700.0000m 
 -327.07475m   91.6370m  700.0000m 
 -326.97475m   91.6394m  700.0000m 
 -326.87475m   91.6417m  700.0000m 
 -326.77475m   91.6441m  700.0000m 
 -326.67475m   91.6465m  700.0000m 
 -326.57475m   91.6489m  700.0000m 
 -326.47475m   91.6513m  700.0000m 
 -326.37475m   91.6537m  700.0000m 
 -326.27475m   91.6561m  700.0000m 
 -326.17475m   91.6585m  700.0000m 
 -326.07475m   91.6608m  700.0000m 
 -325.97475m   91.6632m  700.0000m 
 -325.87475m   91.6656m  700.0000m 
 -325.77475m   91.6680m  700.0000m 
 -325.67475m   91.6704m  700.0000m 
 -325.57475m   91.6728m  700.0000m 
 -325.47475m   91.6752m  700.0000m 
 -325.37475m   91.6776m  700.0000m 
 -325.27475m   91.6800m  700.0000m 
 -325.17475m   91.6824m  700.0000m 
 -325.07475m   91.6848m  700.0000m 
 -324.97475m   91.6872m  700.0000m 
 -324.87475m   91.6896m  700.0000m 
 -324.77475m   91.6921m  700.0000m 
 -324.67475m   91.6945m  700.0000m 
 -324.57475m   91.6969m  700.0000m 
 -324.47475m   91.6993m  700.0000m 
 -324.37475m   91.7017m  700.0000m 
 -324.27475m   91.7041m  700.0000m 
 -324.17475m   91.7065m  700.0000m 
 -324.07475m   91.7089m  700.0000m 
 -323.97475m   91.7114m  700.0000m 
 -323.87475m   91.7138m  700.0000m 
 -323.77475m   91.7162m  700.0000m 
 -323.67475m   91.7186m  700.0000m 
 -323.57475m   91.7211m  700.0000m 
 -323.47475m   91.7235m  700.0000m 
 -323.37475m   91.7259m  700.0000m 
 -323.27475m   91.7283m  700.0000m 
 -323.17475m   91.7308m  700.0000m 
 -323.07475m   91.7332m  700.0000m 
 -322.97475m   91.7356m  700.0000m 
 -322.87475m   91.7380m  700.0000m 
 -322.77475m   91.7405m  700.0000m 
 -322.67475m   91.7429m  700.0000m 
 -322.57475m   91.7454m  700.0000m 
 -322.47475m   91.7478m  700.0000m 
 -322.37475m   91.7502m  700.0000m 
 -322.27475m   91.7527m  700.0000m 
 -322.17475m   91.7551m  700.0000m 
 -322.07475m   91.7575m  700.0000m 
 -321.97475m   91.7600m  700.0000m 
 -321.87475m   91.7624m  700.0000m 
 -321.77475m   91.7649m  700.0000m 
 -321.67475m   91.7673m  700.0000m 
 -321.57475m   91.7698m  700.0000m 
 -321.47475m   91.7722m  700.0000m 
 -321.37475m   91.7747m  700.0000m 
 -321.27475m   91.7771m  700.0000m 
 -321.17475m   91.7796m  700.0000m 
 -321.07475m   91.7820m  700.0000m 
 -320.97475m   91.7845m  700.0000m 
 -320.87475m   91.7870m  700.0000m 
 -320.77475m   91.7894m  700.0000m 
 -320.67475m   91.7919m  700.0000m 
 -320.57475m   91.7943m  700.0000m 
 -320.47475m   91.7968m  700.0000m 
 -320.37475m   91.7993m  700.0000m 
 -320.27475m   91.8017m  700.0000m 
 -320.17475m   91.8042m  700.0000m 
 -320.07475m   91.8067m  700.0000m 
 -319.97475m   91.8091m  700.0000m 
 -319.87475m   91.8116m  700.0000m 
 -319.77475m   91.8141m  700.0000m 
 -319.67475m   91.8165m  700.0000m 
 -319.57475m   91.8190m  700.0000m 
 -319.47475m   91.8215m  700.0000m 
 -319.37475m   91.8240m  700.0000m 
 -319.27475m   91.8264m  700.0000m 
 -319.17475m   91.8289m  700.0000m 
 -319.07475m   91.8314m  700.0000m 
 -318.97475m   91.8339m  700.0000m 
 -318.87475m   91.8364m  700.0000m 
 -318.77475m   91.8388m  700.0000m 
 -318.67475m   91.8413m  700.0000m 
 -318.57475m   91.8438m  700.0000m 
 -318.47475m   91.8463m  700.0000m 
 -318.37475m   91.8488m  700.0000m 
 -318.27475m   91.8513m  700.0000m 
 -318.17475m   91.8538m  700.0000m 
 -318.07475m   91.8563m  700.0000m 
 -317.97475m   91.8588m  700.0000m 
 -317.87475m   91.8613m  700.0000m 
 -317.77475m   91.8638m  700.0000m 
 -317.67475m   91.8663m  700.0000m 
 -317.57475m   91.8688m  700.0000m 
 -317.47475m   91.8713m  700.0000m 
 -317.37475m   91.8738m  700.0000m 
 -317.27475m   91.8763m  700.0000m 
 -317.17475m   91.8788m  700.0000m 
 -317.07475m   91.8813m  700.0000m 
 -316.97475m   91.8838m  700.0000m 
 -316.87475m   91.8863m  700.0000m 
 -316.77475m   91.8888m  700.0000m 
 -316.67475m   91.8913m  700.0000m 
 -316.57475m   91.8938m  700.0000m 
 -316.47475m   91.8963m  700.0000m 
 -316.37475m   91.8989m  700.0000m 
 -316.27475m   91.9014m  700.0000m 
 -316.17475m   91.9039m  700.0000m 
 -316.07475m   91.9064m  700.0000m 
 -315.97475m   91.9089m  700.0000m 
 -315.87475m   91.9115m  700.0000m 
 -315.77475m   91.9140m  700.0000m 
 -315.67475m   91.9165m  700.0000m 
 -315.57475m   91.9190m  700.0000m 
 -315.47475m   91.9216m  700.0000m 
 -315.37475m   91.9241m  700.0000m 
 -315.27475m   91.9266m  700.0000m 
 -315.17475m   91.9291m  700.0000m 
 -315.07475m   91.9317m  700.0000m 
 -314.97475m   91.9342m  700.0000m 
 -314.87475m   91.9367m  700.0000m 
 -314.77475m   91.9393m  700.0000m 
 -314.67475m   91.9418m  700.0000m 
 -314.57475m   91.9444m  700.0000m 
 -314.47475m   91.9469m  700.0000m 
 -314.37475m   91.9494m  700.0000m 
 -314.27475m   91.9520m  700.0000m 
 -314.17475m   91.9545m  700.0000m 
 -314.07475m   91.9571m  700.0000m 
 -313.97475m   91.9596m  700.0000m 
 -313.87475m   91.9622m  700.0000m 
 -313.77475m   91.9647m  700.0000m 
 -313.67475m   91.9673m  700.0000m 
 -313.57475m   91.9698m  700.0000m 
 -313.47475m   91.9724m  700.0000m 
 -313.37475m   91.9749m  700.0000m 
 -313.27475m   91.9775m  700.0000m 
 -313.17475m   91.9800m  700.0000m 
 -313.07475m   91.9826m  700.0000m 
 -312.97475m   91.9852m  700.0000m 
 -312.87475m   91.9877m  700.0000m 
 -312.77475m   91.9903m  700.0000m 
 -312.67475m   91.9929m  700.0000m 
 -312.57475m   91.9954m  700.0000m 
 -312.47475m   91.9980m  700.0000m 
 -312.37475m   92.0006m  700.0000m 
 -312.27475m   92.0031m  700.0000m 
 -312.17475m   92.0057m  700.0000m 
 -312.07475m   92.0083m  700.0000m 
 -311.97475m   92.0108m  700.0000m 
 -311.87475m   92.0134m  700.0000m 
 -311.77475m   92.0160m  700.0000m 
 -311.67475m   92.0186m  700.0000m 
 -311.57475m   92.0212m  700.0000m 
 -311.47475m   92.0237m  700.0000m 
 -311.37475m   92.0263m  700.0000m 
 -311.27475m   92.0289m  700.0000m 
 -311.17475m   92.0315m  700.0000m 
 -311.07475m   92.0341m  700.0000m 
 -310.97475m   92.0367m  700.0000m 
 -310.87475m   92.0392m  700.0000m 
 -310.77475m   92.0418m  700.0000m 
 -310.67475m   92.0444m  700.0000m 
 -310.57475m   92.0470m  700.0000m 
 -310.47475m   92.0496m  700.0000m 
 -310.37475m   92.0522m  700.0000m 
 -310.27475m   92.0548m  700.0000m 
 -310.17475m   92.0574m  700.0000m 
 -310.07475m   92.0600m  700.0000m 
 -309.97475m   92.0626m  700.0000m 
 -309.87475m   92.0652m  700.0000m 
 -309.77475m   92.0678m  700.0000m 
 -309.67475m   92.0704m  700.0000m 
 -309.57475m   92.0730m  700.0000m 
 -309.47475m   92.0756m  700.0000m 
 -309.37475m   92.0782m  700.0000m 
 -309.27475m   92.0809m  700.0000m 
 -309.17475m   92.0835m  700.0000m 
 -309.07475m   92.0861m  700.0000m 
 -308.97475m   92.0887m  700.0000m 
 -308.87475m   92.0913m  700.0000m 
 -308.77475m   92.0939m  700.0000m 
 -308.67475m   92.0965m  700.0000m 
 -308.57475m   92.0992m  700.0000m 
 -308.47475m   92.1018m  700.0000m 
 -308.37475m   92.1044m  700.0000m 
 -308.27475m   92.1070m  700.0000m 
 -308.17475m   92.1097m  700.0000m 
 -308.07475m   92.1123m  700.0000m 
 -307.97475m   92.1149m  700.0000m 
 -307.87475m   92.1175m  700.0000m 
 -307.77475m   92.1202m  700.0000m 
 -307.67475m   92.1228m  700.0000m 
 -307.57475m   92.1254m  700.0000m 
 -307.47475m   92.1281m  700.0000m 
 -307.37475m   92.1307m  700.0000m 
 -307.27475m   92.1334m  700.0000m 
 -307.17475m   92.1360m  700.0000m 
 -307.07475m   92.1386m  700.0000m 
 -306.97475m   92.1413m  700.0000m 
 -306.87475m   92.1439m  700.0000m 
 -306.77475m   92.1466m  700.0000m 
 -306.67475m   92.1492m  700.0000m 
 -306.57475m   92.1519m  700.0000m 
 -306.47475m   92.1545m  700.0000m 
 -306.37475m   92.1572m  700.0000m 
 -306.27475m   92.1598m  700.0000m 
 -306.17475m   92.1625m  700.0000m 
 -306.07475m   92.1651m  700.0000m 
 -305.97475m   92.1678m  700.0000m 
 -305.87475m   92.1704m  700.0000m 
 -305.77475m   92.1731m  700.0000m 
 -305.67475m   92.1758m  700.0000m 
 -305.57475m   92.1784m  700.0000m 
 -305.47475m   92.1811m  700.0000m 
 -305.37475m   92.1838m  700.0000m 
 -305.27475m   92.1864m  700.0000m 
 -305.17475m   92.1891m  700.0000m 
 -305.07475m   92.1918m  700.0000m 
 -304.97475m   92.1944m  700.0000m 
 -304.87475m   92.1971m  700.0000m 
 -304.77475m   92.1998m  700.0000m 
 -304.67475m   92.2024m  700.0000m 
 -304.57475m   92.2051m  700.0000m 
 -304.47475m   92.2078m  700.0000m 
 -304.37475m   92.2105m  700.0000m 
 -304.27475m   92.2132m  700.0000m 
 -304.17475m   92.2158m  700.0000m 
 -304.07475m   92.2185m  700.0000m 
 -303.97475m   92.2212m  700.0000m 
 -303.87475m   92.2239m  700.0000m 
 -303.77475m   92.2266m  700.0000m 
 -303.67475m   92.2293m  700.0000m 
 -303.57475m   92.2320m  700.0000m 
 -303.47475m   92.2347m  700.0000m 
 -303.37475m   92.2373m  700.0000m 
 -303.27475m   92.2400m  700.0000m 
 -303.17475m   92.2427m  700.0000m 
 -303.07475m   92.2454m  700.0000m 
 -302.97475m   92.2481m  700.0000m 
 -302.87475m   92.2508m  700.0000m 
 -302.77475m   92.2535m  700.0000m 
 -302.67475m   92.2562m  700.0000m 
 -302.57475m   92.2589m  700.0000m 
 -302.47475m   92.2616m  700.0000m 
 -302.37475m   92.2644m  700.0000m 
 -302.27475m   92.2671m  700.0000m 
 -302.17475m   92.2698m  700.0000m 
 -302.07475m   92.2725m  700.0000m 
 -301.97475m   92.2752m  700.0000m 
 -301.87475m   92.2779m  700.0000m 
 -301.77475m   92.2806m  700.0000m 
 -301.67475m   92.2833m  700.0000m 
 -301.57475m   92.2861m  700.0000m 
 -301.47475m   92.2888m  700.0000m 
 -301.37475m   92.2915m  700.0000m 
 -301.27475m   92.2942m  700.0000m 
 -301.17475m   92.2970m  700.0000m 
 -301.07475m   92.2997m  700.0000m 
 -300.97475m   92.3024m  700.0000m 
 -300.87475m   92.3051m  700.0000m 
 -300.77475m   92.3079m  700.0000m 
 -300.67475m   92.3106m  700.0000m 
 -300.57475m   92.3133m  700.0000m 
 -300.47475m   92.3161m  700.0000m 
 -300.37475m   92.3188m  700.0000m 
 -300.27475m   92.3215m  700.0000m 
 -300.17475m   92.3243m  700.0000m 
 -300.07475m   92.3270m  700.0000m 
 -299.97475m   92.3298m  700.0000m 
 -299.87475m   92.3325m  700.0000m 
 -299.77475m   92.3353m  700.0000m 
 -299.67475m   92.3380m  700.0000m 
 -299.57475m   92.3407m  700.0000m 
 -299.47475m   92.3435m  700.0000m 
 -299.37475m   92.3462m  700.0000m 
 -299.27475m   92.3490m  700.0000m 
 -299.17475m   92.3518m  700.0000m 
 -299.07475m   92.3545m  700.0000m 
 -298.97475m   92.3573m  700.0000m 
 -298.87475m   92.3600m  700.0000m 
 -298.77475m   92.3628m  700.0000m 
 -298.67475m   92.3655m  700.0000m 
 -298.57475m   92.3683m  700.0000m 
 -298.47475m   92.3711m  700.0000m 
 -298.37475m   92.3738m  700.0000m 
 -298.27475m   92.3766m  700.0000m 
 -298.17475m   92.3794m  700.0000m 
 -298.07475m   92.3821m  700.0000m 
 -297.97475m   92.3849m  700.0000m 
 -297.87475m   92.3877m  700.0000m 
 -297.77475m   92.3905m  700.0000m 
 -297.67475m   92.3932m  700.0000m 
 -297.57475m   92.3960m  700.0000m 
 -297.47475m   92.3988m  700.0000m 
 -297.37475m   92.4016m  700.0000m 
 -297.27475m   92.4044m  700.0000m 
 -297.17475m   92.4071m  700.0000m 
 -297.07475m   92.4099m  700.0000m 
 -296.97475m   92.4127m  700.0000m 
 -296.87475m   92.4155m  700.0000m 
 -296.77475m   92.4183m  700.0000m 
 -296.67475m   92.4211m  700.0000m 
 -296.57475m   92.4239m  700.0000m 
 -296.47475m   92.4267m  700.0000m 
 -296.37475m   92.4295m  700.0000m 
 -296.27475m   92.4323m  700.0000m 
 -296.17475m   92.4351m  700.0000m 
 -296.07475m   92.4379m  700.0000m 
 -295.97475m   92.4407m  700.0000m 
 -295.87475m   92.4435m  700.0000m 
 -295.77475m   92.4463m  700.0000m 
 -295.67475m   92.4491m  700.0000m 
 -295.57475m   92.4519m  700.0000m 
 -295.47475m   92.4547m  700.0000m 
 -295.37475m   92.4575m  700.0000m 
 -295.27475m   92.4603m  700.0000m 
 -295.17475m   92.4631m  700.0000m 
 -295.07475m   92.4659m  700.0000m 
 -294.97475m   92.4687m  700.0000m 
 -294.87475m   92.4716m  700.0000m 
 -294.77475m   92.4744m  700.0000m 
 -294.67475m   92.4772m  700.0000m 
 -294.57475m   92.4800m  700.0000m 
 -294.47475m   92.4829m  700.0000m 
 -294.37475m   92.4857m  700.0000m 
 -294.27475m   92.4885m  700.0000m 
 -294.17475m   92.4913m  700.0000m 
 -294.07475m   92.4942m  700.0000m 
 -293.97475m   92.4970m  700.0000m 
 -293.87475m   92.4998m  700.0000m 
 -293.77475m   92.5027m  700.0000m 
 -293.67475m   92.5055m  700.0000m 
 -293.57475m   92.5083m  700.0000m 
 -293.47475m   92.5112m  700.0000m 
 -293.37475m   92.5140m  700.0000m 
 -293.27475m   92.5169m  700.0000m 
 -293.17475m   92.5197m  700.0000m 
 -293.07475m   92.5225m  700.0000m 
 -292.97475m   92.5254m  700.0000m 
 -292.87475m   92.5282m  700.0000m 
 -292.77475m   92.5311m  700.0000m 
 -292.67475m   92.5339m  700.0000m 
 -292.57475m   92.5368m  700.0000m 
 -292.47475m   92.5396m  700.0000m 
 -292.37475m   92.5425m  700.0000m 
 -292.27475m   92.5454m  700.0000m 
 -292.17475m   92.5482m  700.0000m 
 -292.07475m   92.5511m  700.0000m 
 -291.97475m   92.5539m  700.0000m 
 -291.87475m   92.5568m  700.0000m 
 -291.77475m   92.5597m  700.0000m 
 -291.67475m   92.5625m  700.0000m 
 -291.57475m   92.5654m  700.0000m 
 -291.47475m   92.5683m  700.0000m 
 -291.37475m   92.5711m  700.0000m 
 -291.27475m   92.5740m  700.0000m 
 -291.17475m   92.5769m  700.0000m 
 -291.07475m   92.5798m  700.0000m 
 -290.97475m   92.5826m  700.0000m 
 -290.87475m   92.5855m  700.0000m 
 -290.77475m   92.5884m  700.0000m 
 -290.67475m   92.5913m  700.0000m 
 -290.57475m   92.5942m  700.0000m 
 -290.47475m   92.5970m  700.0000m 
 -290.37475m   92.5999m  700.0000m 
 -290.27475m   92.6028m  700.0000m 
 -290.17475m   92.6057m  700.0000m 
 -290.07475m   92.6086m  700.0000m 
 -289.97475m   92.6115m  700.0000m 
 -289.87475m   92.6144m  700.0000m 
 -289.77475m   92.6173m  700.0000m 
 -289.67475m   92.6202m  700.0000m 
 -289.57475m   92.6231m  700.0000m 
 -289.47475m   92.6260m  700.0000m 
 -289.37475m   92.6289m  700.0000m 
 -289.27475m   92.6318m  700.0000m 
 -289.17475m   92.6347m  700.0000m 
 -289.07475m   92.6376m  700.0000m 
 -288.97475m   92.6405m  700.0000m 
 -288.87475m   92.6434m  700.0000m 
 -288.77475m   92.6463m  700.0000m 
 -288.67475m   92.6492m  700.0000m 
 -288.57475m   92.6522m  700.0000m 
 -288.47475m   92.6551m  700.0000m 
 -288.37475m   92.6580m  700.0000m 
 -288.27475m   92.6609m  700.0000m 
 -288.17475m   92.6638m  700.0000m 
 -288.07475m   92.6668m  700.0000m 
 -287.97475m   92.6697m  700.0000m 
 -287.87475m   92.6726m  700.0000m 
 -287.77475m   92.6755m  700.0000m 
 -287.67475m   92.6785m  700.0000m 
 -287.57475m   92.6814m  700.0000m 
 -287.47475m   92.6843m  700.0000m 
 -287.37475m   92.6873m  700.0000m 
 -287.27475m   92.6902m  700.0000m 
 -287.17475m   92.6931m  700.0000m 
 -287.07475m   92.6961m  700.0000m 
 -286.97475m   92.6990m  700.0000m 
 -286.87475m   92.7019m  700.0000m 
 -286.77475m   92.7049m  700.0000m 
 -286.67475m   92.7078m  700.0000m 
 -286.57475m   92.7108m  700.0000m 
 -286.47475m   92.7137m  700.0000m 
 -286.37475m   92.7167m  700.0000m 
 -286.27475m   92.7196m  700.0000m 
 -286.17475m   92.7226m  700.0000m 
 -286.07475m   92.7255m  700.0000m 
 -285.97475m   92.7285m  700.0000m 
 -285.87475m   92.7314m  700.0000m 
 -285.77475m   92.7344m  700.0000m 
 -285.67475m   92.7374m  700.0000m 
 -285.57475m   92.7403m  700.0000m 
 -285.47475m   92.7433m  700.0000m 
 -285.37475m   92.7463m  700.0000m 
 -285.27475m   92.7492m  700.0000m 
 -285.17475m   92.7522m  700.0000m 
 -285.07475m   92.7552m  700.0000m 
 -284.97475m   92.7581m  700.0000m 
 -284.87475m   92.7611m  700.0000m 
 -284.77475m   92.7641m  700.0000m 
 -284.67475m   92.7671m  700.0000m 
 -284.57475m   92.7700m  700.0000m 
 -284.47475m   92.7730m  700.0000m 
 -284.37475m   92.7760m  700.0000m 
 -284.27475m   92.7790m  700.0000m 
 -284.17475m   92.7820m  700.0000m 
 -284.07475m   92.7849m  700.0000m 
 -283.97475m   92.7879m  700.0000m 
 -283.87475m   92.7909m  700.0000m 
 -283.77475m   92.7939m  700.0000m 
 -283.67475m   92.7969m  700.0000m 
 -283.57475m   92.7999m  700.0000m 
 -283.47475m   92.8029m  700.0000m 
 -283.37475m   92.8059m  700.0000m 
 -283.27475m   92.8089m  700.0000m 
 -283.17475m   92.8119m  700.0000m 
 -283.07475m   92.8149m  700.0000m 
 -282.97475m   92.8179m  700.0000m 
 -282.87475m   92.8209m  700.0000m 
 -282.77475m   92.8239m  700.0000m 
 -282.67475m   92.8269m  700.0000m 
 -282.57475m   92.8299m  700.0000m 
 -282.47475m   92.8329m  700.0000m 
 -282.37475m   92.8360m  700.0000m 
 -282.27475m   92.8390m  700.0000m 
 -282.17475m   92.8420m  700.0000m 
 -282.07475m   92.8450m  700.0000m 
 -281.97475m   92.8480m  700.0000m 
 -281.87475m   92.8511m  700.0000m 
 -281.77475m   92.8541m  700.0000m 
 -281.67475m   92.8571m  700.0000m 
 -281.57475m   92.8601m  700.0000m 
 -281.47475m   92.8632m  700.0000m 
 -281.37475m   92.8662m  700.0000m 
 -281.27475m   92.8692m  700.0000m 
 -281.17475m   92.8723m  700.0000m 
 -281.07475m   92.8753m  700.0000m 
 -280.97475m   92.8783m  700.0000m 
 -280.87475m   92.8814m  700.0000m 
 -280.77475m   92.8844m  700.0000m 
 -280.67475m   92.8874m  700.0000m 
 -280.57475m   92.8905m  700.0000m 
 -280.47475m   92.8935m  700.0000m 
 -280.37475m   92.8966m  700.0000m 
 -280.27475m   92.8996m  700.0000m 
 -280.17475m   92.9027m  700.0000m 
 -280.07475m   92.9057m  700.0000m 
 -279.97475m   92.9088m  700.0000m 
 -279.87475m   92.9118m  700.0000m 
 -279.77475m   92.9149m  700.0000m 
 -279.67475m   92.9180m  700.0000m 
 -279.57475m   92.9210m  700.0000m 
 -279.47475m   92.9241m  700.0000m 
 -279.37475m   92.9271m  700.0000m 
 -279.27475m   92.9302m  700.0000m 
 -279.17475m   92.9333m  700.0000m 
 -279.07475m   92.9363m  700.0000m 
 -278.97475m   92.9394m  700.0000m 
 -278.87475m   92.9425m  700.0000m 
 -278.77475m   92.9456m  700.0000m 
 -278.67475m   92.9486m  700.0000m 
 -278.57475m   92.9517m  700.0000m 
 -278.47475m   92.9548m  700.0000m 
 -278.37475m   92.9579m  700.0000m 
 -278.27475m   92.9610m  700.0000m 
 -278.17475m   92.9640m  700.0000m 
 -278.07475m   92.9671m  700.0000m 
 -277.97475m   92.9702m  700.0000m 
 -277.87475m   92.9733m  700.0000m 
 -277.77475m   92.9764m  700.0000m 
 -277.67475m   92.9795m  700.0000m 
 -277.57475m   92.9826m  700.0000m 
 -277.47475m   92.9857m  700.0000m 
 -277.37475m   92.9888m  700.0000m 
 -277.27475m   92.9919m  700.0000m 
 -277.17475m   92.9950m  700.0000m 
 -277.07475m   92.9981m  700.0000m 
 -276.97475m   93.0012m  700.0000m 
[...]
  453.22525m  700.0000m   89.4087m 
  453.32525m  700.0000m   89.4074m 
  453.42525m  700.0000m   89.4062m 
  453.52525m  700.0000m   89.4049m 
  453.62525m  700.0000m   89.4036m 
  453.72525m  700.0000m   89.4023m 
  453.82525m  700.0000m   89.4011m 
  453.92525m  700.0000m   89.3998m 
  454.02525m  700.0000m   89.3985m 
  454.12525m  700.0000m   89.3972m 
  454.22525m  700.0000m   89.3960m 
  454.32525m  700.0000m   89.3947m 
  454.42525m  700.0000m   89.3934m 
  454.52525m  700.0000m   89.3921m 
  454.62525m  700.0000m   89.3909m 
  454.72525m  700.0000m   89.3896m 
  454.82525m  700.0000m   89.3883m 
  454.92525m  700.0000m   89.3870m 
  455.02525m  700.0000m   89.3858m 
  455.12525m  700.0000m   89.3845m 
  455.22525m  700.0000m   89.3832m 
  455.32525m  700.0000m   89.3820m 
  455.42525m  700.0000m   89.3807m 
  455.52525m  700.0000m   89.3794m 
  455.62525m  700.0000m   89.3782m 
  455.72525m  700.0000m   89.3769m 
  455.82525m  700.0000m   89.3756m 
  455.92525m  700.0000m   89.3744m 
  456.02525m  700.0000m   89.3731m 
  456.12525m  700.0000m   89.3719m 
  456.22525m  700.0000m   89.3706m 
  456.32525m  700.0000m   89.3693m 
  456.42525m  700.0000m   89.3681m 
  456.52525m  700.0000m   89.3668m 
  456.62525m  700.0000m   89.3655m 
  456.72525m  700.0000m   89.3643m 
  456.82525m  700.0000m   89.3630m 
  456.92525m  700.0000m   89.3618m 
  457.02525m  700.0000m   89.3605m 
  457.12525m  700.0000m   89.3593m 
  457.22525m  700.0000m   89.3580m 
  457.32525m  700.0000m   89.3567m 
  457.42525m  700.0000m   89.3555m 
  457.52525m  700.0000m   89.3542m 
  457.62525m  700.0000m   89.3530m 
  457.72525m  700.0000m   89.3517m 
  457.82525m  700.0000m   89.3505m 
  457.92525m  700.0000m   89.3492m 
  458.02525m  700.0000m   89.3480m 
  458.12525m  700.0000m   89.3467m 
  458.22525m  700.0000m   89.3455m 
  458.32525m  700.0000m   89.3442m 
  458.42525m  700.0000m   89.3430m 
  458.52525m  700.0000m   89.3417m 
  458.62525m  700.0000m   89.3405m 
  458.72525m  700.0000m   89.3392m 
  458.82525m  700.0000m   89.3380m 
  458.92525m  700.0000m   89.3367m 
  459.02525m  700.0000m   89.3355m 
  459.12525m  700.0000m   89.3342m 
  459.22525m  700.0000m   89.3330m 
  459.32525m  700.0000m   89.3317m 
  459.42525m  700.0000m   89.3305m 
  459.52525m  700.0000m   89.3293m 
  459.62525m  700.0000m   89.3280m 
  459.72525m  700.0000m   89.3268m 
  459.82525m  700.0000m   89.3255m 
  459.92525m  700.0000m   89.3243m 
  460.02525m  700.0000m   89.3231m 
  460.12525m  700.0000m   89.3218m 
  460.22525m  700.0000m   89.3206m 
  460.32525m  700.0000m   89.3193m 
  460.42525m  700.0000m   89.3181m 
  460.52525m  700.0000m   89.3169m 
  460.62525m  700.0000m   89.3156m 
  460.72525m  700.0000m   89.3144m 
  460.82525m  700.0000m   89.3132m 
  460.92525m  700.0000m   89.3119m 
  461.02525m  700.0000m   89.3107m 
  461.12525m  700.0000m   89.3095m 
  461.22525m  700.0000m   89.3082m 
  461.32525m  700.0000m   89.3070m 
  461.42525m  700.0000m   89.3058m 
  461.52525m  700.0000m   89.3045m 
  461.62525m  700.0000m   89.3033m 
  461.72525m  700.0000m   89.3021m 
  461.82525m  700.0000m   89.3008m 
  461.92525m  700.0000m   89.2996m 
  462.02525m  700.0000m   89.2984m 
  462.12525m  700.0000m   89.2972m 
  462.22525m  700.0000m   89.2959m 
  462.32525m  700.0000m   89.2947m 
  462.42525m  700.0000m   89.2935m 
  462.52525m  700.0000m   89.2922m 
  462.62525m  700.0000m   89.2910m 
  462.72525m  700.0000m   89.2898m 
  462.82525m  700.0000m   89.2886m 
  462.92525m  700.0000m   89.2874m 
  463.02525m  700.0000m   89.2861m 
  463.12525m  700.0000m   89.2849m 
  463.22525m  700.0000m   89.2837m 
  463.32525m  700.0000m   89.2825m 
  463.42525m  700.0000m   89.2812m 
  463.52525m  700.0000m   89.2800m 
  463.62525m  700.0000m   89.2788m 
  463.72525m  700.0000m   89.2776m 
  463.82525m  700.0000m   89.2764m 
  463.92525m  700.0000m   89.2752m 
  464.02525m  700.0000m   89.2739m 
  464.12525m  700.0000m   89.2727m 
  464.22525m  700.0000m   89.2715m 
  464.32525m  700.0000m   89.2703m 
  464.42525m  700.0000m   89.2691m 
  464.52525m  700.0000m   89.2679m 
  464.62525m  700.0000m   89.2666m 
  464.72525m  700.0000m   89.2654m 
  464.82525m  700.0000m   89.2642m 
  464.92525m  700.0000m   89.2630m 
  465.02525m  700.0000m   89.2618m 
  465.12525m  700.0000m   89.2606m 
  465.22525m  700.0000m   89.2594m 
  465.32525m  700.0000m   89.2582m 
  465.42525m  700.0000m   89.2570m 
  465.52525m  700.0000m   89.2558m 
  465.62525m  700.0000m   89.2545m 
  465.72525m  700.0000m   89.2533m 
  465.82525m  700.0000m   89.2521m 
  465.92525m  700.0000m   89.2509m 
  466.02525m  700.0000m   89.2497m 
  466.12525m  700.0000m   89.2485m 
  466.22525m  700.0000m   89.2473m 
  466.32525m  700.0000m   89.2461m 
  466.42525m  700.0000m   89.2449m 
  466.52525m  700.0000m   89.2437m 
  466.62525m  700.0000m   89.2425m 
  466.72525m  700.0000m   89.2413m 
  466.82525m  700.0000m   89.2401m 
  466.92525m  700.0000m   89.2389m 
  467.02525m  700.0000m   89.2377m 
  467.12525m  700.0000m   89.2365m 
  467.22525m  700.0000m   89.2353m 
  467.32525m  700.0000m   89.2341m 
  467.42525m  700.0000m   89.2329m 
  467.52525m  700.0000m   89.2317m 
  467.62525m  700.0000m   89.2305m 
  467.72525m  700.0000m   89.2293m 
  467.82525m  700.0000m   89.2281m 
  467.92525m  700.0000m   89.2269m 
  468.02525m  700.0000m   89.2257m 
  468.12525m  700.0000m   89.2245m 
  468.22525m  700.0000m   89.2234m 
  468.32525m  700.0000m   89.2222m 
  468.42525m  700.0000m   89.2210m 
  468.52525m  700.0000m   89.2198m 
  468.62525m  700.0000m   89.2186m 
  468.72525m  700.0000m   89.2174m 
  468.82525m  700.0000m   89.2162m 
  468.92525m  700.0000m   89.2150m 
  469.02525m  700.0000m   89.2138m 
  469.12525m  700.0000m   89.2126m 
  469.22525m  700.0000m   89.2115m 
  469.32525m  700.0000m   89.2103m 
  469.42525m  700.0000m   89.2091m 
  469.52525m  700.0000m   89.2079m 
  469.62525m  700.0000m   89.2067m 
  469.72525m  700.0000m   89.2055m 
  469.82525m  700.0000m   89.2044m 
  469.92525m  700.0000m   89.2032m 
  470.02525m  700.0000m   89.2020m 
  470.12525m  700.0000m   89.2008m 
  470.22525m  700.0000m   89.1996m 
  470.32525m  700.0000m   89.1984m 
  470.42525m  700.0000m   89.1973m 
  470.52525m  700.0000m   89.1961m 
  470.62525m  700.0000m   89.1949m 
  470.72525m  700.0000m   89.1937m 
  470.82525m  700.0000m   89.1925m 
  470.92525m  700.0000m   89.1914m 
  471.02525m  700.0000m   89.1902m 
  471.12525m  700.0000m   89.1890m 
  471.22525m  700.0000m   89.1878m 
  471.32525m  700.0000m   89.1867m 
  471.42525m  700.0000m   89.1855m 
  471.52525m  700.0000m   89.1843m 
  471.62525m  700.0000m   89.1831m 
  471.72525m  700.0000m   89.1820m 
  471.82525m  700.0000m   89.1808m 
  471.92525m  700.0000m   89.1796m 
  472.02525m  700.0000m   89.1785m 
  472.12525m  700.0000m   89.1773m 
  472.22525m  700.0000m   89.1761m 
  472.32525m  700.0000m   89.1749m 
  472.42525m  700.0000m   89.1738m 
  472.52525m  700.0000m   89.1726m 
  472.62525m  700.0000m   89.1714m 
  472.72525m  700.0000m   89.1703m 
  472.82525m  700.0000m   89.1691m 
  472.92525m  700.0000m   89.1679m 
  473.02525m  700.0000m   89.1668m 
  473.12525m  700.0000m   89.1656m 
  473.22525m  700.0000m   89.1644m 
  473.32525m  700.0000m   89.1633m 
  473.42525m  700.0000m   89.1621m 
  473.52525m  700.0000m   89.1610m 
  473.62525m  700.0000m   89.1598m 
  473.72525m  700.0000m   89.1586m 
  473.82525m  700.0000m   89.1575m 
  473.92525m  700.0000m   89.1563m 
  474.02525m  700.0000m   89.1551m 
  474.12525m  700.0000m   89.1540m 
  474.22525m  700.0000m   89.1528m 
  474.32525m  700.0000m   89.1517m 
  474.42525m  700.0000m   89.1505m 
  474.52525m  700.0000m   89.1494m 
  474.62525m  700.0000m   89.1482m 
  474.72525m  700.0000m   89.1470m 
  474.82525m  700.0000m   89.1459m 
  474.92525m  700.0000m   89.1447m 
  475.02525m  700.0000m   89.1436m 
  475.12525m  700.0000m   89.1424m 
  475.22525m  700.0000m   89.1413m 
  475.32525m  700.0000m   89.1401m 
  475.42525m  700.0000m   89.1390m 
  475.52525m  700.0000m   89.1378m 
  475.62525m  700.0000m   89.1367m 
  475.72525m  700.0000m   89.1355m 
  475.82525m  700.0000m   89.1344m 
  475.92525m  700.0000m   89.1332m 
  476.02525m  700.0000m   89.1321m 
  476.12525m  700.0000m   89.1309m 
  476.22525m  700.0000m   89.1298m 
  476.32525m  700.0000m   89.1286m 
  476.42525m  700.0000m   89.1275m 
  476.52525m  700.0000m   89.1263m 
  476.62525m  700.0000m   89.1252m 
  476.72525m  700.0000m   89.1240m 
  476.82525m  700.0000m   89.1229m 
  476.92525m  700.0000m   89.1217m 
  477.02525m  700.0000m   89.1206m 
  477.12525m  700.0000m   89.1194m 
  477.22525m  700.0000m   89.1183m 
  477.32525m  700.0000m   89.1172m 
  477.42525m  700.0000m   89.1160m 
  477.52525m  700.0000m   89.1149m 
  477.62525m  700.0000m   89.1137m 
  477.72525m  700.0000m   89.1126m 
  477.82525m  700.0000m   89.1115m 
  477.92525m  700.0000m   89.1103m 
  478.02525m  700.0000m   89.1092m 
  478.12525m  700.0000m   89.1080m 
  478.22525m  700.0000m   89.1069m 
  478.32525m  700.0000m   89.1058m 
  478.42525m  699.9999m   89.1046m 
  478.52525m  699.9999m   89.1035m 
  478.62525m  699.9999m   89.1024m 
  478.72525m  699.9999m   89.1012m 
  478.82525m  699.9999m   89.1001m 
  478.92525m  699.9999m   89.0990m 
  479.02525m  699.9999m   89.0978m 
  479.12525m  699.9999m   89.0967m 
  479.22525m  699.9999m   89.0956m 
  479.32525m  699.9999m   89.0944m 
  479.42525m  699.9999m   89.0933m 
  479.52525m  699.9999m   89.0922m 
  479.62525m  699.9999m   89.0910m 
  479.72525m  699.9999m   89.0899m 
  479.82525m  699.9999m   89.0888m 
  479.92525m  699.9999m   89.0877m 
  480.02525m  699.9999m   89.0865m 
  480.12525m  699.9999m   89.0854m 
  480.22525m  699.9999m   89.0843m 
  480.32525m  699.9999m   89.0831m 
  480.42525m  699.9999m   89.0820m 
  480.52525m  699.9999m   89.0809m 
  480.62525m  699.9999m   89.0798m 
  480.72525m  699.9999m   89.0786m 
  480.82525m  699.9999m   89.0775m 
  480.92525m  699.9999m   89.0764m 
  481.02525m  699.9999m   89.0753m 
  481.12525m  699.9999m   89.0742m 
  481.22525m  699.9999m   89.0730m 
  481.32525m  699.9999m   89.0719m 
  481.42525m  699.9999m   89.0708m 
  481.52525m  699.9999m   89.0697m 
  481.62525m  699.9999m   89.0686m 
  481.72525m  699.9999m   89.0674m 
  481.82525m  699.9999m   89.0663m 
  481.92525m  699.9999m   89.0652m 
  482.02525m  699.9999m   89.0641m 
  482.12525m  699.9999m   89.0630m 
  482.22525m  699.9999m   89.0618m 
  482.32525m  699.9999m   89.0607m 
  482.42525m  699.9999m   89.0596m 
  482.52525m  699.9999m   89.0585m 
  482.62525m  699.9999m   89.0574m 
  482.72525m  699.9999m   89.0563m 
  482.82525m  699.9999m   89.0552m 
  482.92525m  699.9999m   89.0540m 
  483.02525m  699.9999m   89.0529m 
  483.12525m  699.9999m   89.0518m 
  483.22525m  699.9999m   89.0507m 
  483.32525m  699.9999m   89.0496m 
  483.42525m  699.9999m   89.0485m 
  483.52525m  699.9999m   89.0474m 
  483.62525m  699.9999m   89.0463m 
  483.72525m  699.9999m   89.0452m 
  483.82525m  699.9999m   89.0441m 
  483.92525m  699.9999m   89.0430m 
  484.02525m  699.9999m   89.0418m 
  484.12525m  699.9999m   89.0407m 
  484.22525m  699.9999m   89.0396m 
  484.32525m  699.9999m   89.0385m 
  484.42525m  699.9999m   89.0374m 
  484.52525m  699.9999m   89.0363m 
  484.62525m  699.9999m   89.0352m 
  484.72525m  699.9999m   89.0341m 
  484.82525m  699.9999m   89.0330m 
  484.92525m  699.9999m   89.0319m 
  485.02525m  699.9999m   89.0308m 
  485.12525m  699.9999m   89.0297m 
  485.22525m  699.9999m   89.0286m 
  485.32525m  699.9999m   89.0275m 
  485.42525m  699.9999m   89.0264m 
  485.52525m  699.9999m   89.0253m 
  485.62525m  699.9999m   89.0242m 
  485.72525m  699.9999m   89.0231m 
  485.82525m  699.9999m   89.0220m 
  485.92525m  699.9999m   89.0209m 
  486.02525m  699.9999m   89.0198m 
  486.12525m  699.9999m   89.0187m 
  486.22525m  699.9999m   89.0176m 
  486.32525m  699.9999m   89.0165m 
  486.42525m  699.9999m   89.0154m 
  486.52525m  699.9999m   89.0143m 
  486.62525m  699.9999m   89.0133m 
  486.72525m  699.9999m   89.0122m 
  486.82525m  699.9999m   89.0111m 
  486.92525m  699.9999m   89.0100m 
  487.02525m  699.9999m   89.0089m 
  487.12525m  699.9999m   89.0078m 
  487.22525m  699.9999m   89.0067m 
  487.32525m  699.9999m   89.0056m 
  487.42525m  699.9999m   89.0045m 
  487.52525m  699.9999m   89.0034m 
  487.62525m  699.9999m   89.0024m 
  487.72525m  699.9999m   89.0013m 
  487.82525m  699.9999m   89.0002m 
  487.92525m  699.9999m   88.9991m 
  488.02525m  699.9999m   88.9980m 
  488.12525m  699.9999m   88.9969m 
  488.22525m  699.9999m   88.9958m 
  488.32525m  699.9999m   88.9948m 
  488.42525m  699.9999m   88.9937m 
  488.52525m  699.9999m   88.9926m 
  488.62525m  699.9999m   88.9915m 
  488.72525m  699.9999m   88.9904m 
  488.82525m  699.9999m   88.9893m 
  488.92525m  699.9999m   88.9883m 
  489.02525m  699.9999m   88.9872m 
  489.12525m  699.9999m   88.9861m 
  489.22525m  699.9999m   88.9850m 
  489.32525m  699.9999m   88.9839m 
  489.42525m  699.9999m   88.9829m 
  489.52525m  699.9999m   88.9818m 
  489.62525m  699.9999m   88.9807m 
  489.72525m  699.9999m   88.9796m 
  489.82525m  699.9999m   88.9785m 
  489.92525m  699.9999m   88.9775m 
  490.02525m  699.9999m   88.9764m 
  490.12525m  699.9999m   88.9753m 
  490.22525m  699.9999m   88.9742m 
  490.32525m  699.9999m   88.9732m 
  490.42525m  699.9999m   88.9721m 
  490.52525m  699.9999m   88.9710m 
  490.62525m  699.9999m   88.9700m 
  490.72525m  699.9999m   88.9689m 
  490.82525m  699.9999m   88.9678m 
  490.92525m  699.9999m   88.9667m 
  491.02525m  699.9999m   88.9657m 
  491.12525m  699.9999m   88.9646m 
  491.22525m  699.9999m   88.9635m 
  491.32525m  699.9999m   88.9625m 
  491.42525m  699.9999m   88.9614m 
  491.52525m  699.9999m   88.9603m 
  491.62525m  699.9999m   88.9593m 
  491.72525m  699.9999m   88.9582m 
  491.82525m  699.9999m   88.9571m 
  491.92525m  699.9999m   88.9561m 
  492.02525m  699.9999m   88.9550m 
  492.12525m  699.9999m   88.9539m 
  492.22525m  699.9999m   88.9529m 
  492.32525m  699.9999m   88.9518m 
  492.42525m  699.9999m   88.9507m 
  492.52525m  699.9999m   88.9497m 
  492.62525m  699.9999m   88.9486m 
  492.72525m  699.9999m   88.9475m 
  492.82525m  699.9999m   88.9465m 
  492.92525m  699.9999m   88.9454m 
  493.02525m  699.9999m   88.9444m 
  493.12525m  699.9999m   88.9433m 
  493.22525m  699.9999m   88.9422m 
  493.32525m  699.9999m   88.9412m 
  493.42525m  699.9999m   88.9401m 
  493.52525m  699.9999m   88.9391m 
  493.62525m  699.9999m   88.9380m 
  493.72525m  699.9999m   88.9370m 
  493.82525m  699.9999m   88.9359m 
  493.92525m  699.9999m   88.9348m 
  494.02525m  699.9999m   88.9338m 
  494.12525m  699.9999m   88.9327m 
  494.22525m  699.9999m   88.9317m 
  494.32525m  699.9999m   88.9306m 
  494.42525m  699.9999m   88.9296m 
  494.52525m  699.9999m   88.9285m 
  494.62525m  699.9999m   88.9275m 
  494.72525m  699.9999m   88.9264m 
  494.82525m  699.9999m   88.9254m 
  494.92525m  699.9999m   88.9243m 
y
1****** HSPICE -- Q-2020.03-SP2-2 linux64 (Nov  1 2020) ******                  
 ******  
 .title ex1_1

 ****** operating point information tnom=  25.000 temp=  25.000 ******
 ****** operating point status is all       simulation time is     0.     
    node    =voltage      node    =voltage      node    =voltage

 +0:bl      = 700.0000m 0:blb     = 700.0000m 0:gl      = 373.2765m
 +0:gr      = 373.2765m 0:q       = 373.2765m 0:qb      = 373.2765m
 +0:u       =   0.      0:v1      = 527.8927m 0:v2      = 527.8927m
 +0:vdd     = 700.0000m 0:wl      = 700.0000m


 **** voltage sources

 subckt                                   
 element  0:vu       0:vvdd     0:vwl     
  volts      0.       700.0000m  700.0000m
  current    0.      -896.8232n  -42.6993f
  power      0.       627.7763n   29.8895f

     total voltage source power dissipation=  627.7763n       watts



 **** voltage-controlled voltage sources


 subckt                                              
 element  0:eli      0:eri      0:ev1      0:ev2     
  volts    373.2765m  373.2765m  527.8927m  527.8927m
  current   12.4785f   12.4785f    0.         0.     





 **** mosfets


 subckt                                                                    
 element  0:mp_pu1   0:mp_pu2   0:mn_pd1   0:mn_pd2   0:mn_ax1   0:mn_ax2  
 model    0:pmos_sra 0:pmos_sra 0:nmos_sra 0:nmos_sra 0:nmos_sra 0:nmos_sra
 region   Subth      Subth      Subth      Subth      Subth      Subth     
  id      -448.4116n -448.4116n  564.6259n  564.6259n  116.2144n  116.2144n
  ibs        0.         0.         0.         0.         0.         0.     
  ibd        0.         0.         0.         0.         0.         0.     
  vgs     -326.7235m -326.7235m  373.2765m  373.2765m  326.7235m  326.7235m
  vds     -326.7235m -326.7235m  373.2765m  373.2765m  326.7235m  326.7235m
  vbs        0.         0.         0.         0.      -373.2765m -373.2765m
  vth     -334.8227m -334.8227m  408.4753m  408.4753m  408.7317m  408.7317m
  vdsat    -93.7528m  -93.7528m   80.0655m   80.0655m   72.9074m   72.9074m
  vod        8.0993m    8.0993m  -35.1987m  -35.1987m  -82.0082m  -82.0082m
  beta       1.6413m    1.6413m    2.1736m    2.1736m    2.1736m    2.1736m
  gam eff    0.         0.         0.         0.         0.         0.     
  gm        11.9718u   11.9718u   17.0436u   17.0436u    4.1690u    4.1690u
  gds      276.9639n  276.9639n  265.8630n  265.8630n   66.2838n   66.2838n
  gmb        4.3235p    4.3235p    5.6990p    5.6990p    1.0228p    1.0228p
  cdtot     10.1770a   10.1770a   10.2207a   10.2207a   10.2213a   10.2213a
  cgtot     30.7262a   30.7262a   26.6272a   26.6272a   22.2592a   22.2592a
  cstot     16.9362a   16.9362a   14.3868a   14.3868a   11.4589a   11.4589a
  cbtot      0.         0.         0.         0.         0.         0.     
  cgs       20.6543a   20.6543a   16.4276a   16.4276a   12.0453a   12.0453a
  cgd       10.0719a   10.0719a   10.1996a   10.1996a   10.2138a   10.2138a




          ***** job concluded
 ******  
 .title ex1_1

 ****** job statistics summary tnom=  25.000 temp=  25.000 ******
  
 ******  Machine Information  ******
 CPU:
 model name	: AMD EPYC 7713 64-Core Processor
 cpu MHz	: 2000.000
  
 OS:
 Linux version 3.10.0-1160.88.1.el7.x86_64 (mockbuild@kbuilder.bsys.centos.org) (gcc version 4.8.5 20150623 (Red Hat 4.8.5-44) (GCC) ) #1 SMP Tue Mar 7 15:41:52 UTC 2023


  ******  HSPICE Threads Information  ******

  Command Line Threads Count :     1
  Available CPU Count        :   256
  Actual Threads Count       :     1


  ******  Circuit Statistics  ******
  # nodes       =      12 # elements   =      15
  # resistors   =       0 # capacitors =       2 # inductors   =       0
  # mutual_inds =       0 # vccs       =       0 # vcvs        =       4
  # cccs        =       0 # ccvs       =       0 # volt_srcs   =       3
  # curr_srcs   =       0 # diodes     =       0 # bjts        =       0
  # jfets       =       0 # mosfets    =       6 # U elements  =       0
  # T elements  =       0 # W elements =       0 # B elements  =       0
  # S elements  =       0 # P elements =       0 # va device   =       0
  # vector_srcs =       0 # N elements =       0


  ******  Runtime Statistics (seconds)  ******

  analysis           time    # points   tot. iter  conv.iter
  op point           0.01           1           7
  dc sweep           0.85        9900       30027
  readin             0.01
  errchk             0.00
  setup              0.00
  output             0.00


           peak memory used        400.88 megabytes
           total cpu time            0.91 seconds
           total elapsed time        1.08 seconds
           job started at     23:24:03 03/18/2025
           job ended   at     23:24:04 03/18/2025
           job total runtime         1.08 seconds


 lic: Release hspice token(s) 
 lic: total license checkout elapse time:        0.16(s)
