 ****** HSPICE -- Q-2020.03-SP2-2 linux64 (Nov  1 2020) ******                  
  Copyright (c) 1986 - 2025 by Synopsys, Inc. All Rights Reserved.              
  This software and the associated documentation are proprietary
  to Synopsys, Inc. This software may only be used in accordance
  with the terms and conditions of a written license agreement with
  Synopsys, Inc. All other use, reproduction, or distribution of
  this software is strictly prohibited.
  Input File: ex1_1.sp                                                          
  Command line options: /RAID2/cad/synopsys/hspice/2020.03-sp2-2/hspice/linux64/hspice -i ex1_1.sp -o ex1_1.lis
  Start time: Tue Mar 18 21:15:39 2025
 lic:  
 lic: FLEXlm: SDK_12.6 
 lic: USER:   es25MCS042           HOSTNAME: ee28 
 lic: HOSTID: "d85ed3efc19a"       PID:      218416 
 lic: Using FLEXlm license file: 
 lic: 26585@lshc 
 lic: Checkout 1 hspice 
 lic: License/Maintenance for hspice will expire on 14-may-2025/2024.09 
 lic: 307(in_use)/1100(total) FLOATING license(s) on SERVER 26585@lshc 
 lic:   
  
      
             
 Warning:'Floating bulk' occurs 1 times
 Summary of floating bulk:
 -----------------------
 |Node      |Device    |
 |----------+----------|
 |x         |mn_ax1    |
 -----------------------
              
 *****************************************************************
 ******  option summary
 ******
 runlvl  = 3         bypass  = 2.0000    
 convergence problems in dc sweep curves at  0.17459    
  resimulating with dc convergence controls

 convergence problem in dc sweep curve at 0.17459    
 pseudo tran is tried

  *** pseudo tran succeeded *** 
 ******
 .title ex1_1

 ****** dc transfer curves tnom=  25.000 temp=  25.000 ******
x

 volt         voltage    voltage   
             q          qb         
 -707.10678m  699.9933m    4.9491u 
 -707.00678m  699.9933m    4.9438u 
 -706.90678m  699.9933m    4.9386u 
 -706.80678m  699.9933m    4.9333u 
 -706.70678m  699.9933m    4.9281u 
 -706.60678m  699.9933m    4.9229u 
 -706.50678m  699.9934m    4.9176u 
 -706.40678m  699.9934m    4.9124u 
 -706.30678m  699.9934m    4.9072u 
 -706.20678m  699.9934m    4.9020u 
 -706.10678m  699.9934m    4.8968u 
 -706.00678m  699.9934m    4.8916u 
 -705.90678m  699.9934m    4.8864u 
 -705.80678m  699.9934m    4.8813u 
 -705.70678m  699.9934m    4.8761u 
 -705.60678m  699.9934m    4.8710u 
 -705.50678m  699.9934m    4.8658u 
 -705.40678m  699.9934m    4.8607u 
 -705.30678m  699.9934m    4.8556u 
 -705.20678m  699.9934m    4.8504u 
 -705.10678m  699.9934m    4.8453u 
 -705.00678m  699.9934m    4.8402u 
 -704.90678m  699.9934m    4.8351u 
 -704.80678m  699.9934m    4.8300u 
 -704.70678m  699.9935m    4.8249u 
 -704.60678m  699.9935m    4.8199u 
 -704.50678m  699.9935m    4.8148u 
 -704.40678m  699.9935m    4.8098u 
 -704.30678m  699.9935m    4.8047u 
 -704.20678m  699.9935m    4.7997u 
 -704.10678m  699.9935m    4.7946u 
 -704.00678m  699.9935m    4.7896u 
 -703.90678m  699.9935m    4.7846u 
 -703.80678m  699.9935m    4.7796u 
 -703.70678m  699.9935m    4.7746u 
 -703.60678m  699.9935m    4.7696u 
 -703.50678m  699.9935m    4.7646u 
 -703.40678m  699.9935m    4.7596u 
 -703.30678m  699.9935m    4.7546u 
 -703.20678m  699.9935m    4.7497u 
 -703.10678m  699.9935m    4.7447u 
 -703.00678m  699.9935m    4.7398u 
 -702.90678m  699.9936m    4.7348u 
 -702.80678m  699.9936m    4.7299u 
 -702.70678m  699.9936m    4.7250u 
 -702.60678m  699.9936m    4.7201u 
 -702.50678m  699.9936m    4.7151u 
 -702.40678m  699.9936m    4.7102u 
 -702.30678m  699.9936m    4.7054u 
 -702.20678m  699.9936m    4.7005u 
 -702.10678m  699.9936m    4.6956u 
 -702.00678m  699.9936m    4.6907u 
 -701.90678m  699.9936m    4.6858u 
 -701.80678m  699.9936m    4.6810u 
 -701.70678m  699.9936m    4.6761u 
 -701.60678m  699.9936m    4.6713u 
 -701.50678m  699.9936m    4.6665u 
 -701.40678m  699.9936m    4.6616u 
 -701.30678m  699.9936m    4.6568u 
 -701.20678m  699.9936m    4.6520u 
 -701.10678m  699.9936m    4.6472u 
 -701.00678m  699.9937m    4.6424u 
 -700.90678m  699.9937m    4.6376u 
 -700.80678m  699.9937m    4.6328u 
 -700.70678m  699.9937m    4.6280u 
 -700.60678m  699.9937m    4.6233u 
 -700.50678m  699.9937m    4.6185u 
 -700.40678m  699.9937m    4.6138u 
 -700.30678m  699.9937m    4.6090u 
 -700.20678m  699.9937m    4.6043u 
 -700.10678m  699.9937m    4.5995u 
 -700.00678m  699.9937m    4.5948u 
 -699.90678m  699.9937m    4.5901u 
 -699.80678m  699.9937m    4.5854u 
 -699.70678m  699.9937m    4.5807u 
 -699.60678m  699.9937m    4.5760u 
 -699.50678m  699.9937m    4.5713u 
 -699.40678m  699.9937m    4.5666u 
 -699.30678m  699.9937m    4.5619u 
 -699.20678m  699.9937m    4.5573u 
 -699.10678m  699.9938m    4.5526u 
 -699.00678m  699.9938m    4.5480u 
 -698.90678m  699.9938m    4.5433u 
 -698.80678m  699.9938m    4.5387u 
 -698.70678m  699.9938m    4.5341u 
 -698.60678m  699.9938m    4.5294u 
 -698.50678m  699.9938m    4.5248u 
 -698.40678m  699.9938m    4.5202u 
 -698.30678m  699.9938m    4.5156u 
 -698.20678m  699.9938m    4.5110u 
 -698.10678m  699.9938m    4.5064u 
 -698.00678m  699.9938m    4.5018u 
 -697.90678m  699.9938m    4.4972u 
 -697.80678m  699.9938m    4.4927u 
 -697.70678m  699.9938m    4.4881u 
 -697.60678m  699.9938m    4.4836u 
 -697.50678m  699.9938m    4.4790u 
 -697.40678m  699.9938m    4.4745u 
 -697.30678m  699.9938m    4.4699u 
 -697.20678m  699.9938m    4.4654u 
 -697.10678m  699.9939m    4.4609u 
 -697.00678m  699.9939m    4.4564u 
 -696.90678m  699.9939m    4.4519u 
 -696.80678m  699.9939m    4.4474u 
 -696.70678m  699.9939m    4.4429u 
 -696.60678m  699.9939m    4.4384u 
 -696.50678m  699.9939m    4.4339u 
 -696.40678m  699.9939m    4.4294u 
 -696.30678m  699.9939m    4.4250u 
 -696.20678m  699.9939m    4.4205u 
 -696.10678m  699.9939m    4.4161u 
 -696.00678m  699.9939m    4.4116u 
 -695.90678m  699.9939m    4.4072u 
 -695.80678m  699.9939m    4.4027u 
 -695.70678m  699.9939m    4.3983u 
 -695.60678m  699.9939m    4.3939u 
 -695.50678m  699.9939m    4.3895u 
 -695.40678m  699.9939m    4.3851u 
 -695.30678m  699.9939m    4.3807u 
 -695.20678m  699.9939m    4.3763u 
 -695.10678m  699.9940m    4.3719u 
 -695.00678m  699.9940m    4.3675u 
 -694.90678m  699.9940m    4.3631u 
 -694.80678m  699.9940m    4.3588u 
 -694.70678m  699.9940m    4.3544u 
 -694.60678m  699.9940m    4.3501u 
 -694.50678m  699.9940m    4.3457u 
 -694.40678m  699.9940m    4.3414u 
 -694.30678m  699.9940m    4.3370u 
 -694.20678m  699.9940m    4.3327u 
 -694.10678m  699.9940m    4.3284u 
 -694.00678m  699.9940m    4.3241u 
 -693.90678m  699.9940m    4.3198u 
 -693.80678m  699.9940m    4.3155u 
 -693.70678m  699.9940m    4.3112u 
 -693.60678m  699.9940m    4.3069u 
 -693.50678m  699.9940m    4.3026u 
 -693.40678m  699.9940m    4.2983u 
 -693.30678m  699.9940m    4.2940u 
 -693.20678m  699.9940m    4.2898u 
 -693.10678m  699.9940m    4.2855u 
 -693.00678m  699.9941m    4.2813u 
 -692.90678m  699.9941m    4.2770u 
 -692.80678m  699.9941m    4.2728u 
 -692.70678m  699.9941m    4.2686u 
 -692.60678m  699.9941m    4.2643u 
 -692.50678m  699.9941m    4.2601u 
 -692.40678m  699.9941m    4.2559u 
 -692.30678m  699.9941m    4.2517u 
 -692.20678m  699.9941m    4.2475u 
 -692.10678m  699.9941m    4.2433u 
 -692.00678m  699.9941m    4.2391u 
 -691.90678m  699.9941m    4.2349u 
 -691.80678m  699.9941m    4.2307u 
 -691.70678m  699.9941m    4.2266u 
 -691.60678m  699.9941m    4.2224u 
 -691.50678m  699.9941m    4.2183u 
 -691.40678m  699.9941m    4.2141u 
 -691.30678m  699.9941m    4.2100u 
 -691.20678m  699.9941m    4.2058u 
 -691.10678m  699.9941m    4.2017u 
 -691.00678m  699.9941m    4.1976u 
 -690.90678m  699.9942m    4.1934u 
 -690.80678m  699.9942m    4.1893u 
 -690.70678m  699.9942m    4.1852u 
 -690.60678m  699.9942m    4.1811u 
 -690.50678m  699.9942m    4.1770u 
 -690.40678m  699.9942m    4.1729u 
 -690.30678m  699.9942m    4.1688u 
 -690.20678m  699.9942m    4.1648u 
 -690.10678m  699.9942m    4.1607u 
 -690.00678m  699.9942m    4.1566u 
 -689.90678m  699.9942m    4.1526u 
 -689.80678m  699.9942m    4.1485u 
 -689.70678m  699.9942m    4.1445u 
 -689.60678m  699.9942m    4.1404u 
 -689.50678m  699.9942m    4.1364u 
 -689.40678m  699.9942m    4.1323u 
 -689.30678m  699.9942m    4.1283u 
 -689.20678m  699.9942m    4.1243u 
 -689.10678m  699.9942m    4.1203u 
 -689.00678m  699.9942m    4.1163u 
 -688.90678m  699.9942m    4.1123u 
 -688.80678m  699.9942m    4.1083u 
 -688.70678m  699.9943m    4.1043u 
 -688.60678m  699.9943m    4.1003u 
 -688.50678m  699.9943m    4.0963u 
 -688.40678m  699.9943m    4.0924u 
 -688.30678m  699.9943m    4.0884u 
 -688.20678m  699.9943m    4.0844u 
 -688.10678m  699.9943m    4.0805u 
 -688.00678m  699.9943m    4.0765u 
 -687.90678m  699.9943m    4.0726u 
 -687.80678m  699.9943m    4.0686u 
 -687.70678m  699.9943m    4.0647u 
 -687.60678m  699.9943m    4.0608u 
 -687.50678m  699.9943m    4.0569u 
 -687.40678m  699.9943m    4.0529u 
 -687.30678m  699.9943m    4.0490u 
 -687.20678m  699.9943m    4.0451u 
 -687.10678m  699.9943m    4.0412u 
 -687.00678m  699.9943m    4.0373u 
 -686.90678m  699.9943m    4.0335u 
 -686.80678m  699.9943m    4.0296u 
 -686.70678m  699.9943m    4.0257u 
 -686.60678m  699.9943m    4.0218u 
 -686.50678m  699.9944m    4.0180u 
 -686.40678m  699.9944m    4.0141u 
 -686.30678m  699.9944m    4.0103u 
 -686.20678m  699.9944m    4.0064u 
 -686.10678m  699.9944m    4.0026u 
 -686.00678m  699.9944m    3.9987u 
 -685.90678m  699.9944m    3.9949u 
 -685.80678m  699.9944m    3.9911u 
 -685.70678m  699.9944m    3.9873u 
 -685.60678m  699.9944m    3.9834u 
 -685.50678m  699.9944m    3.9796u 
 -685.40678m  699.9944m    3.9758u 
 -685.30678m  699.9944m    3.9720u 
 -685.20678m  699.9944m    3.9682u 
 -685.10678m  699.9944m    3.9645u 
 -685.00678m  699.9944m    3.9607u 
 -684.90678m  699.9944m    3.9569u 
 -684.80678m  699.9944m    3.9531u 
 -684.70678m  699.9944m    3.9494u 
 -684.60678m  699.9944m    3.9456u 
 -684.50678m  699.9944m    3.9418u 
 -684.40678m  699.9944m    3.9381u 
 -684.30678m  699.9944m    3.9344u 
 -684.20678m  699.9945m    3.9306u 
 -684.10678m  699.9945m    3.9269u 
 -684.00678m  699.9945m    3.9232u 
 -683.90678m  699.9945m    3.9194u 
 -683.80678m  699.9945m    3.9157u 
 -683.70678m  699.9945m    3.9120u 
 -683.60678m  699.9945m    3.9083u 
 -683.50678m  699.9945m    3.9046u 
 -683.40678m  699.9945m    3.9009u 
 -683.30678m  699.9945m    3.8972u 
 -683.20678m  699.9945m    3.8935u 
 -683.10678m  699.9945m    3.8898u 
 -683.00678m  699.9945m    3.8862u 
 -682.90678m  699.9945m    3.8825u 
 -682.80678m  699.9945m    3.8788u 
 -682.70678m  699.9945m    3.8752u 
 -682.60678m  699.9945m    3.8715u 
 -682.50678m  699.9945m    3.8679u 
 -682.40678m  699.9945m    3.8642u 
 -682.30678m  699.9945m    3.8606u 
 -682.20678m  699.9945m    3.8570u 
 -682.10678m  699.9945m    3.8533u 
 -682.00678m  699.9945m    3.8497u 
 -681.90678m  699.9945m    3.8461u 
 -681.80678m  699.9946m    3.8425u 
 -681.70678m  699.9946m    3.8389u 
 -681.60678m  699.9946m    3.8353u 
 -681.50678m  699.9946m    3.8317u 
 -681.40678m  699.9946m    3.8281u 
 -681.30678m  699.9946m    3.8245u 
 -681.20678m  699.9946m    3.8209u 
 -681.10678m  699.9946m    3.8173u 
 -681.00678m  699.9946m    3.8138u 
 -680.90678m  699.9946m    3.8102u 
 -680.80678m  699.9946m    3.8066u 
 -680.70678m  699.9946m    3.8031u 
 -680.60678m  699.9946m    3.7995u 
 -680.50678m  699.9946m    3.7960u 
 -680.40678m  699.9946m    3.7924u 
 -680.30678m  699.9946m    3.7889u 
 -680.20678m  699.9946m    3.7854u 
 -680.10678m  699.9946m    3.7819u 
 -680.00678m  699.9946m    3.7783u 
 -679.90678m  699.9946m    3.7748u 
 -679.80678m  699.9946m    3.7713u 
 -679.70678m  699.9946m    3.7678u 
 -679.60678m  699.9946m    3.7643u 
 -679.50678m  699.9946m    3.7608u 
 -679.40678m  699.9947m    3.7573u 
 -679.30678m  699.9947m    3.7538u 
 -679.20678m  699.9947m    3.7503u 
 -679.10678m  699.9947m    3.7469u 
 -679.00678m  699.9947m    3.7434u 
 -678.90678m  699.9947m    3.7399u 
 -678.80678m  699.9947m    3.7365u 
 -678.70678m  699.9947m    3.7330u 
 -678.60678m  699.9947m    3.7295u 
 -678.50678m  699.9947m    3.7261u 
 -678.40678m  699.9947m    3.7227u 
 -678.30678m  699.9947m    3.7192u 
 -678.20678m  699.9947m    3.7158u 
 -678.10678m  699.9947m    3.7124u 
 -678.00678m  699.9947m    3.7089u 
 -677.90678m  699.9947m    3.7055u 
 -677.80678m  699.9947m    3.7021u 
 -677.70678m  699.9947m    3.6987u 
 -677.60678m  699.9947m    3.6953u 
 -677.50678m  699.9947m    3.6919u 
 -677.40678m  699.9947m    3.6885u 
 -677.30678m  699.9947m    3.6851u 
 -677.20678m  699.9947m    3.6817u 
 -677.10678m  699.9947m    3.6783u 
 -677.00678m  699.9947m    3.6750u 
 -676.90678m  699.9948m    3.6716u 
 -676.80678m  699.9948m    3.6682u 
 -676.70678m  699.9948m    3.6649u 
 -676.60678m  699.9948m    3.6615u 
 -676.50678m  699.9948m    3.6581u 
 -676.40678m  699.9948m    3.6548u 
 -676.30678m  699.9948m    3.6515u 
 -676.20678m  699.9948m    3.6481u 
 -676.10678m  699.9948m    3.6448u 
 -676.00678m  699.9948m    3.6415u 
 -675.90678m  699.9948m    3.6381u 
 -675.80678m  699.9948m    3.6348u 
 -675.70678m  699.9948m    3.6315u 
 -675.60678m  699.9948m    3.6282u 
 -675.50678m  699.9948m    3.6249u 
 -675.40678m  699.9948m    3.6216u 
 -675.30678m  699.9948m    3.6183u 
 -675.20678m  699.9948m    3.6150u 
 -675.10678m  699.9948m    3.6117u 
 -675.00678m  699.9948m    3.6084u 
 -674.90678m  699.9948m    3.6051u 
 -674.80678m  699.9948m    3.6019u 
 -674.70678m  699.9948m    3.5986u 
 -674.60678m  699.9948m    3.5953u 
 -674.50678m  699.9948m    3.5921u 
 -674.40678m  699.9948m    3.5888u 
 -674.30678m  699.9949m    3.5855u 
 -674.20678m  699.9949m    3.5823u 
 -674.10678m  699.9949m    3.5791u 
 -674.00678m  699.9949m    3.5758u 
 -673.90678m  699.9949m    3.5726u 
 -673.80678m  699.9949m    3.5694u 
 -673.70678m  699.9949m    3.5661u 
 -673.60678m  699.9949m    3.5629u 
 -673.50678m  699.9949m    3.5597u 
 -673.40678m  699.9949m    3.5565u 
 -673.30678m  699.9949m    3.5533u 
 -673.20678m  699.9949m    3.5501u 
 -673.10678m  699.9949m    3.5469u 
 -673.00678m  699.9949m    3.5437u 
 -672.90678m  699.9949m    3.5405u 
 -672.80678m  699.9949m    3.5373u 
 -672.70678m  699.9949m    3.5341u 
 -672.60678m  699.9949m    3.5309u 
 -672.50678m  699.9949m    3.5278u 
 -672.40678m  699.9949m    3.5246u 
 -672.30678m  699.9949m    3.5214u 
 -672.20678m  699.9949m    3.5183u 
 -672.10678m  699.9949m    3.5151u 
 -672.00678m  699.9949m    3.5120u 
 -671.90678m  699.9949m    3.5088u 
 -671.80678m  699.9949m    3.5057u 
 -671.70678m  699.9950m    3.5025u 
 -671.60678m  699.9950m    3.4994u 
 -671.50678m  699.9950m    3.4963u 
 -671.40678m  699.9950m    3.4931u 
 -671.30678m  699.9950m    3.4900u 
 -671.20678m  699.9950m    3.4869u 
 -671.10678m  699.9950m    3.4838u 
 -671.00678m  699.9950m    3.4807u 
 -670.90678m  699.9950m    3.4776u 
 -670.80678m  699.9950m    3.4745u 
 -670.70678m  699.9950m    3.4714u 
 -670.60678m  699.9950m    3.4683u 
 -670.50678m  699.9950m    3.4652u 
 -670.40678m  699.9950m    3.4621u 
 -670.30678m  699.9950m    3.4590u 
 -670.20678m  699.9950m    3.4560u 
 -670.10678m  699.9950m    3.4529u 
 -670.00678m  699.9950m    3.4498u 
 -669.90678m  699.9950m    3.4468u 
 -669.80678m  699.9950m    3.4437u 
 -669.70678m  699.9950m    3.4407u 
 -669.60678m  699.9950m    3.4376u 
 -669.50678m  699.9950m    3.4346u 
 -669.40678m  699.9950m    3.4315u 
 -669.30678m  699.9950m    3.4285u 
 -669.20678m  699.9950m    3.4254u 
 -669.10678m  699.9950m    3.4224u 
 -669.00678m  699.9951m    3.4194u 
 -668.90678m  699.9951m    3.4164u 
 -668.80678m  699.9951m    3.4134u 
 -668.70678m  699.9951m    3.4103u 
 -668.60678m  699.9951m    3.4073u 
 -668.50678m  699.9951m    3.4043u 
 -668.40678m  699.9951m    3.4013u 
 -668.30678m  699.9951m    3.3983u 
 -668.20678m  699.9951m    3.3953u 
 -668.10678m  699.9951m    3.3923u 
 -668.00678m  699.9951m    3.3894u 
 -667.90678m  699.9951m    3.3864u 
 -667.80678m  699.9951m    3.3834u 
 -667.70678m  699.9951m    3.3804u 
 -667.60678m  699.9951m    3.3775u 
 -667.50678m  699.9951m    3.3745u 
 -667.40678m  699.9951m    3.3715u 
 -667.30678m  699.9951m    3.3686u 
 -667.20678m  699.9951m    3.3656u 
 -667.10678m  699.9951m    3.3627u 
 -667.00678m  699.9951m    3.3597u 
 -666.90678m  699.9951m    3.3568u 
 -666.80678m  699.9951m    3.3538u 
 -666.70678m  699.9951m    3.3509u 
 -666.60678m  699.9951m    3.3480u 
 -666.50678m  699.9951m    3.3451u 
 -666.40678m  699.9951m    3.3421u 
 -666.30678m  699.9951m    3.3392u 
 -666.20678m  699.9951m    3.3363u 
 -666.10678m  699.9952m    3.3334u 
 -666.00678m  699.9952m    3.3305u 
 -665.90678m  699.9952m    3.3276u 
 -665.80678m  699.9952m    3.3247u 
 -665.70678m  699.9952m    3.3218u 
 -665.60678m  699.9952m    3.3189u 
 -665.50678m  699.9952m    3.3160u 
 -665.40678m  699.9952m    3.3131u 
 -665.30678m  699.9952m    3.3103u 
 -665.20678m  699.9952m    3.3074u 
 -665.10678m  699.9952m    3.3045u 
 -665.00678m  699.9952m    3.3016u 
 -664.90678m  699.9952m    3.2988u 
 -664.80678m  699.9952m    3.2959u 
 -664.70678m  699.9952m    3.2931u 
 -664.60678m  699.9952m    3.2902u 
 -664.50678m  699.9952m    3.2874u 
 -664.40678m  699.9952m    3.2845u 
 -664.30678m  699.9952m    3.2817u 
 -664.20678m  699.9952m    3.2788u 
 -664.10678m  699.9952m    3.2760u 
 -664.00678m  699.9952m    3.2732u 
 -663.90678m  699.9952m    3.2703u 
 -663.80678m  699.9952m    3.2675u 
 -663.70678m  699.9952m    3.2647u 
 -663.60678m  699.9952m    3.2619u 
 -663.50678m  699.9952m    3.2591u 
 -663.40678m  699.9952m    3.2563u 
 -663.30678m  699.9952m    3.2535u 
 -663.20678m  699.9953m    3.2507u 
 -663.10678m  699.9953m    3.2479u 
 -663.00678m  699.9953m    3.2451u 
 -662.90678m  699.9953m    3.2423u 
 -662.80678m  699.9953m    3.2395u 
 -662.70678m  699.9953m    3.2367u 
 -662.60678m  699.9953m    3.2339u 
 -662.50678m  699.9953m    3.2312u 
 -662.40678m  699.9953m    3.2284u 
 -662.30678m  699.9953m    3.2256u 
 -662.20678m  699.9953m    3.2229u 
 -662.10678m  699.9953m    3.2201u 
 -662.00678m  699.9953m    3.2173u 
 -661.90678m  699.9953m    3.2146u 
 -661.80678m  699.9953m    3.2118u 
 -661.70678m  699.9953m    3.2091u 
 -661.60678m  699.9953m    3.2064u 
 -661.50678m  699.9953m    3.2036u 
 -661.40678m  699.9953m    3.2009u 
 -661.30678m  699.9953m    3.1982u 
 -661.20678m  699.9953m    3.1954u 
 -661.10678m  699.9953m    3.1927u 
 -661.00678m  699.9953m    3.1900u 
 -660.90678m  699.9953m    3.1873u 
 -660.80678m  699.9953m    3.1845u 
 -660.70678m  699.9953m    3.1818u 
 -660.60678m  699.9953m    3.1791u 
 -660.50678m  699.9953m    3.1764u 
 -660.40678m  699.9953m    3.1737u 
 -660.30678m  699.9954m    3.1710u 
 -660.20678m  699.9954m    3.1683u 
 -660.10678m  699.9954m    3.1657u 
 -660.00678m  699.9954m    3.1630u 
 -659.90678m  699.9954m    3.1603u 
 -659.80678m  699.9954m    3.1576u 
 -659.70678m  699.9954m    3.1549u 
 -659.60678m  699.9954m    3.1523u 
 -659.50678m  699.9954m    3.1496u 
 -659.40678m  699.9954m    3.1469u 
 -659.30678m  699.9954m    3.1443u 
 -659.20678m  699.9954m    3.1416u 
 -659.10678m  699.9954m    3.1390u 
 -659.00678m  699.9954m    3.1363u 
 -658.90678m  699.9954m    3.1337u 
 -658.80678m  699.9954m    3.1310u 
 -658.70678m  699.9954m    3.1284u 
 -658.60678m  699.9954m    3.1257u 
 -658.50678m  699.9954m    3.1231u 
 -658.40678m  699.9954m    3.1205u 
 -658.30678m  699.9954m    3.1178u 
 -658.20678m  699.9954m    3.1152u 
 -658.10678m  699.9954m    3.1126u 
 -658.00678m  699.9954m    3.1100u 
 -657.90678m  699.9954m    3.1074u 
 -657.80678m  699.9954m    3.1048u 
 -657.70678m  699.9954m    3.1022u 
 -657.60678m  699.9954m    3.0996u 
 -657.50678m  699.9954m    3.0970u 
 -657.40678m  699.9954m    3.0944u 
 -657.30678m  699.9954m    3.0918u 
 -657.20678m  699.9955m    3.0892u 
 -657.10678m  699.9955m    3.0866u 
 -657.00678m  699.9955m    3.0840u 
 -656.90678m  699.9955m    3.0814u 
 -656.80678m  699.9955m    3.0788u 
 -656.70678m  699.9955m    3.0763u 
 -656.60678m  699.9955m    3.0737u 
 -656.50678m  699.9955m    3.0711u 
 -656.40678m  699.9955m    3.0686u 
 -656.30678m  699.9955m    3.0660u 
 -656.20678m  699.9955m    3.0635u 
 -656.10678m  699.9955m    3.0609u 
 -656.00678m  699.9955m    3.0584u 
 -655.90678m  699.9955m    3.0558u 
 -655.80678m  699.9955m    3.0533u 
 -655.70678m  699.9955m    3.0507u 
 -655.60678m  699.9955m    3.0482u 
 -655.50678m  699.9955m    3.0456u 
 -655.40678m  699.9955m    3.0431u 
 -655.30678m  699.9955m    3.0406u 
 -655.20678m  699.9955m    3.0381u 
 -655.10678m  699.9955m    3.0355u 
 -655.00678m  699.9955m    3.0330u 
 -654.90678m  699.9955m    3.0305u 
 -654.80678m  699.9955m    3.0280u 
 -654.70678m  699.9955m    3.0255u 
 -654.60678m  699.9955m    3.0230u 
 -654.50678m  699.9955m    3.0205u 
 -654.40678m  699.9955m    3.0180u 
 -654.30678m  699.9955m    3.0155u 
 -654.20678m  699.9955m    3.0130u 
 -654.10678m  699.9955m    3.0105u 
 -654.00678m  699.9956m    3.0080u 
 -653.90678m  699.9956m    3.0055u 
 -653.80678m  699.9956m    3.0031u 
 -653.70678m  699.9956m    3.0006u 
 -653.60678m  699.9956m    2.9981u 
 -653.50678m  699.9956m    2.9956u 
 -653.40678m  699.9956m    2.9932u 
 -653.30678m  699.9956m    2.9907u 
 -653.20678m  699.9956m    2.9882u 
 -653.10678m  699.9956m    2.9858u 
 -653.00678m  699.9956m    2.9833u 
 -652.90678m  699.9956m    2.9809u 
 -652.80678m  699.9956m    2.9784u 
 -652.70678m  699.9956m    2.9760u 
 -652.60678m  699.9956m    2.9735u 
 -652.50678m  699.9956m    2.9711u 
 -652.40678m  699.9956m    2.9687u 
 -652.30678m  699.9956m    2.9662u 
 -652.20678m  699.9956m    2.9638u 
 -652.10678m  699.9956m    2.9614u 
 -652.00678m  699.9956m    2.9590u 
 -651.90678m  699.9956m    2.9565u 
 -651.80678m  699.9956m    2.9541u 
 -651.70678m  699.9956m    2.9517u 
 -651.60678m  699.9956m    2.9493u 
 -651.50678m  699.9956m    2.9469u 
 -651.40678m  699.9956m    2.9445u 
 -651.30678m  699.9956m    2.9421u 
 -651.20678m  699.9956m    2.9397u 
 -651.10678m  699.9956m    2.9373u 
 -651.00678m  699.9956m    2.9349u 
 -650.90678m  699.9956m    2.9325u 
 -650.80678m  699.9956m    2.9301u 
 -650.70678m  699.9957m    2.9277u 
 -650.60678m  699.9957m    2.9253u 
 -650.50678m  699.9957m    2.9230u 
 -650.40678m  699.9957m    2.9206u 
 -650.30678m  699.9957m    2.9182u 
 -650.20678m  699.9957m    2.9158u 
 -650.10678m  699.9957m    2.9135u 
 -650.00678m  699.9957m    2.9111u 
 -649.90678m  699.9957m    2.9088u 
 -649.80678m  699.9957m    2.9064u 
 -649.70678m  699.9957m    2.9040u 
 -649.60678m  699.9957m    2.9017u 
 -649.50678m  699.9957m    2.8993u 
 -649.40678m  699.9957m    2.8970u 
 -649.30678m  699.9957m    2.8946u 
 -649.20678m  699.9957m    2.8923u 
 -649.10678m  699.9957m    2.8900u 
 -649.00678m  699.9957m    2.8876u 
 -648.90678m  699.9957m    2.8853u 
 -648.80678m  699.9957m    2.8830u 
 -648.70678m  699.9957m    2.8807u 
 -648.60678m  699.9957m    2.8783u 
 -648.50678m  699.9957m    2.8760u 
 -648.40678m  699.9957m    2.8737u 
 -648.30678m  699.9957m    2.8714u 
 -648.20678m  699.9957m    2.8691u 
 -648.10678m  699.9957m    2.8668u 
 -648.00678m  699.9957m    2.8645u 
 -647.90678m  699.9957m    2.8621u 
 -647.80678m  699.9957m    2.8598u 
 -647.70678m  699.9957m    2.8576u 
 -647.60678m  699.9957m    2.8553u 
 -647.50678m  699.9957m    2.8530u 
 -647.40678m  699.9957m    2.8507u 
 -647.30678m  699.9958m    2.8484u 
 -647.20678m  699.9958m    2.8461u 
 -647.10678m  699.9958m    2.8438u 
 -647.00678m  699.9958m    2.8416u 
 -646.90678m  699.9958m    2.8393u 
 -646.80678m  699.9958m    2.8370u 
 -646.70678m  699.9958m    2.8347u 
 -646.60678m  699.9958m    2.8325u 
 -646.50678m  699.9958m    2.8302u 
 -646.40678m  699.9958m    2.8279u 
 -646.30678m  699.9958m    2.8257u 
 -646.20678m  699.9958m    2.8234u 
 -646.10678m  699.9958m    2.8212u 
 -646.00678m  699.9958m    2.8189u 
 -645.90678m  699.9958m    2.8167u 
 -645.80678m  699.9958m    2.8144u 
 -645.70678m  699.9958m    2.8122u 
 -645.60678m  699.9958m    2.8100u 
 -645.50678m  699.9958m    2.8077u 
 -645.40678m  699.9958m    2.8055u 
 -645.30678m  699.9958m    2.8033u 
 -645.20678m  699.9958m    2.8010u 
 -645.10678m  699.9958m    2.7988u 
 -645.00678m  699.9958m    2.7966u 
 -644.90678m  699.9958m    2.7944u 
 -644.80678m  699.9958m    2.7922u 
 -644.70678m  699.9958m    2.7899u 
 -644.60678m  699.9958m    2.7877u 
 -644.50678m  699.9958m    2.7855u 
 -644.40678m  699.9958m    2.7833u 
 -644.30678m  699.9958m    2.7811u 
 -644.20678m  699.9958m    2.7789u 
 -644.10678m  699.9958m    2.7767u 
 -644.00678m  699.9958m    2.7745u 
 -643.90678m  699.9958m    2.7723u 
 -643.80678m  699.9958m    2.7701u 
 -643.70678m  699.9959m    2.7679u 
 -643.60678m  699.9959m    2.7658u 
 -643.50678m  699.9959m    2.7636u 
 -643.40678m  699.9959m    2.7614u 
 -643.30678m  699.9959m    2.7592u 
 -643.20678m  699.9959m    2.7571u 
 -643.10678m  699.9959m    2.7549u 
 -643.00678m  699.9959m    2.7527u 
 -642.90678m  699.9959m    2.7505u 
 -642.80678m  699.9959m    2.7484u 
 -642.70678m  699.9959m    2.7462u 
 -642.60678m  699.9959m    2.7441u 
 -642.50678m  699.9959m    2.7419u 
 -642.40678m  699.9959m    2.7398u 
 -642.30678m  699.9959m    2.7376u 
 -642.20678m  699.9959m    2.7355u 
 -642.10678m  699.9959m    2.7333u 
 -642.00678m  699.9959m    2.7312u 
 -641.90678m  699.9959m    2.7290u 
 -641.80678m  699.9959m    2.7269u 
 -641.70678m  699.9959m    2.7248u 
 -641.60678m  699.9959m    2.7226u 
 -641.50678m  699.9959m    2.7205u 
 -641.40678m  699.9959m    2.7184u 
 -641.30678m  699.9959m    2.7162u 
 -641.20678m  699.9959m    2.7141u 
 -641.10678m  699.9959m    2.7120u 
 -641.00678m  699.9959m    2.7099u 
 -640.90678m  699.9959m    2.7078u 
 -640.80678m  699.9959m    2.7057u 
 -640.70678m  699.9959m    2.7036u 
 -640.60678m  699.9959m    2.7015u 
 -640.50678m  699.9959m    2.6993u 
 -640.40678m  699.9959m    2.6972u 
 -640.30678m  699.9959m    2.6951u 
 -640.20678m  699.9959m    2.6931u 
 -640.10678m  699.9960m    2.6910u 
 -640.00678m  699.9960m    2.6889u 
 -639.90678m  699.9960m    2.6868u 
 -639.80678m  699.9960m    2.6847u 
 -639.70678m  699.9960m    2.6826u 
 -639.60678m  699.9960m    2.6805u 
 -639.50678m  699.9960m    2.6784u 
 -639.40678m  699.9960m    2.6764u 
 -639.30678m  699.9960m    2.6743u 
 -639.20678m  699.9960m    2.6722u 
 -639.10678m  699.9960m    2.6702u 
 -639.00678m  699.9960m    2.6681u 
 -638.90678m  699.9960m    2.6660u 
 -638.80678m  699.9960m    2.6640u 
 -638.70678m  699.9960m    2.6619u 
 -638.60678m  699.9960m    2.6598u 
 -638.50678m  699.9960m    2.6578u 
 -638.40678m  699.9960m    2.6557u 
 -638.30678m  699.9960m    2.6537u 
 -638.20678m  699.9960m    2.6516u 
 -638.10678m  699.9960m    2.6496u 
 -638.00678m  699.9960m    2.6476u 
 -637.90678m  699.9960m    2.6455u 
 -637.80678m  699.9960m    2.6435u 
 -637.70678m  699.9960m    2.6415u 
 -637.60678m  699.9960m    2.6394u 
 -637.50678m  699.9960m    2.6374u 
 -637.40678m  699.9960m    2.6354u 
 -637.30678m  699.9960m    2.6333u 
 -637.20678m  699.9960m    2.6313u 
 -637.10678m  699.9960m    2.6293u 
 -637.00678m  699.9960m    2.6273u 
 -636.90678m  699.9960m    2.6253u 
 -636.80678m  699.9960m    2.6232u 
 -636.70678m  699.9960m    2.6212u 
 -636.60678m  699.9960m    2.6192u 
 -636.50678m  699.9960m    2.6172u 
 -636.40678m  699.9960m    2.6152u 
 -636.30678m  699.9961m    2.6132u 
 -636.20678m  699.9961m    2.6112u 
 -636.10678m  699.9961m    2.6092u 
 -636.00678m  699.9961m    2.6072u 
 -635.90678m  699.9961m    2.6052u 
 -635.80678m  699.9961m    2.6033u 
 -635.70678m  699.9961m    2.6013u 
 -635.60678m  699.9961m    2.5993u 
 -635.50678m  699.9961m    2.5973u 
 -635.40678m  699.9961m    2.5953u 
 -635.30678m  699.9961m    2.5933u 
 -635.20678m  699.9961m    2.5914u 
 -635.10678m  699.9961m    2.5894u 
 -635.00678m  699.9961m    2.5874u 
 -634.90678m  699.9961m    2.5855u 
 -634.80678m  699.9961m    2.5835u 
 -634.70678m  699.9961m    2.5815u 
 -634.60678m  699.9961m    2.5796u 
 -634.50678m  699.9961m    2.5776u 
 -634.40678m  699.9961m    2.5756u 
 -634.30678m  699.9961m    2.5737u 
 -634.20678m  699.9961m    2.5717u 
 -634.10678m  699.9961m    2.5698u 
 -634.00678m  699.9961m    2.5678u 
 -633.90678m  699.9961m    2.5659u 
 -633.80678m  699.9961m    2.5640u 
 -633.70678m  699.9961m    2.5620u 
 -633.60678m  699.9961m    2.5601u 
 -633.50678m  699.9961m    2.5581u 
 -633.40678m  699.9961m    2.5562u 
 -633.30678m  699.9961m    2.5543u 
 -633.20678m  699.9961m    2.5523u 
 -633.10678m  699.9961m    2.5504u 
 -633.00678m  699.9961m    2.5485u 
 -632.90678m  699.9961m    2.5466u 
 -632.80678m  699.9961m    2.5447u 
 -632.70678m  699.9961m    2.5427u 
 -632.60678m  699.9961m    2.5408u 
 -632.50678m  699.9961m    2.5389u 
 -632.40678m  699.9961m    2.5370u 
 -632.30678m  699.9962m    2.5351u 
 -632.20678m  699.9962m    2.5332u 
 -632.10678m  699.9962m    2.5313u 
 -632.00678m  699.9962m    2.5294u 
 -631.90678m  699.9962m    2.5275u 
 -631.80678m  699.9962m    2.5256u 
 -631.70678m  699.9962m    2.5237u 
 -631.60678m  699.9962m    2.5218u 
 -631.50678m  699.9962m    2.5199u 
 -631.40678m  699.9962m    2.5180u 
 -631.30678m  699.9962m    2.5161u 
 -631.20678m  699.9962m    2.5142u 
 -631.10678m  699.9962m    2.5123u 
 -631.00678m  699.9962m    2.5105u 
 -630.90678m  699.9962m    2.5086u 
 -630.80678m  699.9962m    2.5067u 
 -630.70678m  699.9962m    2.5048u 
 -630.60678m  699.9962m    2.5030u 
 -630.50678m  699.9962m    2.5011u 
 -630.40678m  699.9962m    2.4992u 
 -630.30678m  699.9962m    2.4974u 
 -630.20678m  699.9962m    2.4955u 
 -630.10678m  699.9962m    2.4936u 
 -630.00678m  699.9962m    2.4918u 
 -629.90678m  699.9962m    2.4899u 
 -629.80678m  699.9962m    2.4881u 
 -629.70678m  699.9962m    2.4862u 
 -629.60678m  699.9962m    2.4844u 
 -629.50678m  699.9962m    2.4825u 
 -629.40678m  699.9962m    2.4807u 
 -629.30678m  699.9962m    2.4788u 
 -629.20678m  699.9962m    2.4770u 
 -629.10678m  699.9962m    2.4751u 
 -629.00678m  699.9962m    2.4733u 
 -628.90678m  699.9962m    2.4715u 
 -628.80678m  699.9962m    2.4696u 
 -628.70678m  699.9962m    2.4678u 
 -628.60678m  699.9962m    2.4660u 
 -628.50678m  699.9962m    2.4642u 
 -628.40678m  699.9962m    2.4623u 
 -628.30678m  699.9963m    2.4605u 
 -628.20678m  699.9963m    2.4587u 
 -628.10678m  699.9963m    2.4569u 
 -628.00678m  699.9963m    2.4550u 
 -627.90678m  699.9963m    2.4532u 
 -627.80678m  699.9963m    2.4514u 
 -627.70678m  699.9963m    2.4496u 
 -627.60678m  699.9963m    2.4478u 
 -627.50678m  699.9963m    2.4460u 
 -627.40678m  699.9963m    2.4442u 
 -627.30678m  699.9963m    2.4424u 
 -627.20678m  699.9963m    2.4406u 
 -627.10678m  699.9963m    2.4388u 
 -627.00678m  699.9963m    2.4370u 
 -626.90678m  699.9963m    2.4352u 
 -626.80678m  699.9963m    2.4334u 
 -626.70678m  699.9963m    2.4316u 
 -626.60678m  699.9963m    2.4298u 
 -626.50678m  699.9963m    2.4280u 
 -626.40678m  699.9963m    2.4263u 
 -626.30678m  699.9963m    2.4245u 
 -626.20678m  699.9963m    2.4227u 
 -626.10678m  699.9963m    2.4209u 
 -626.00678m  699.9963m    2.4191u 
 -625.90678m  699.9963m    2.4174u 
 -625.80678m  699.9963m    2.4156u 
 -625.70678m  699.9963m    2.4138u 
 -625.60678m  699.9963m    2.4121u 
 -625.50678m  699.9963m    2.4103u 
 -625.40678m  699.9963m    2.4085u 
 -625.30678m  699.9963m    2.4068u 
 -625.20678m  699.9963m    2.4050u 
 -625.10678m  699.9963m    2.4033u 
 -625.00678m  699.9963m    2.4015u 
 -624.90678m  699.9963m    2.3997u 
 -624.80678m  699.9963m    2.3980u 
 -624.70678m  699.9963m    2.3962u 
 -624.60678m  699.9963m    2.3945u 
 -624.50678m  699.9963m    2.3928u 
 -624.40678m  699.9963m    2.3910u 
 -624.30678m  699.9963m    2.3893u 
 -624.20678m  699.9963m    2.3875u 
 -624.10678m  699.9963m    2.3858u 
 -624.00678m  699.9964m    2.3841u 
 -623.90678m  699.9964m    2.3823u 
 -623.80678m  699.9964m    2.3806u 
 -623.70678m  699.9964m    2.3789u 
 -623.60678m  699.9964m    2.3771u 
 -623.50678m  699.9964m    2.3754u 
 -623.40678m  699.9964m    2.3737u 
 -623.30678m  699.9964m    2.3720u 
 -623.20678m  699.9964m    2.3702u 
 -623.10678m  699.9964m    2.3685u 
 -623.00678m  699.9964m    2.3668u 
 -622.90678m  699.9964m    2.3651u 
 -622.80678m  699.9964m    2.3634u 
 -622.70678m  699.9964m    2.3617u 
 -622.60678m  699.9964m    2.3600u 
 -622.50678m  699.9964m    2.3582u 
 -622.40678m  699.9964m    2.3565u 
 -622.30678m  699.9964m    2.3548u 
 -622.20678m  699.9964m    2.3531u 
 -622.10678m  699.9964m    2.3514u 
 -622.00678m  699.9964m    2.3497u 
 -621.90678m  699.9964m    2.3480u 
 -621.80678m  699.9964m    2.3464u 
 -621.70678m  699.9964m    2.3447u 
 -621.60678m  699.9964m    2.3430u 
 -621.50678m  699.9964m    2.3413u 
 -621.40678m  699.9964m    2.3396u 
 -621.30678m  699.9964m    2.3379u 
 -621.20678m  699.9964m    2.3362u 
 -621.10678m  699.9964m    2.3346u 
 -621.00678m  699.9964m    2.3329u 
 -620.90678m  699.9964m    2.3312u 
 -620.80678m  699.9964m    2.3295u 
 -620.70678m  699.9964m    2.3278u 
 -620.60678m  699.9964m    2.3262u 
 -620.50678m  699.9964m    2.3245u 
 -620.40678m  699.9964m    2.3228u 
 -620.30678m  699.9964m    2.3212u 
 -620.20678m  699.9964m    2.3195u 
 -620.10678m  699.9964m    2.3178u 
 -620.00678m  699.9964m    2.3162u 
 -619.90678m  699.9964m    2.3145u 
 -619.80678m  699.9964m    2.3129u 
 -619.70678m  699.9964m    2.3112u 
 -619.60678m  699.9965m    2.3096u 
 -619.50678m  699.9965m    2.3079u 
 -619.40678m  699.9965m    2.3063u 
 -619.30678m  699.9965m    2.3046u 
 -619.20678m  699.9965m    2.3030u 
 -619.10678m  699.9965m    2.3013u 
 -619.00678m  699.9965m    2.2997u 
 -618.90678m  699.9965m    2.2981u 
 -618.80678m  699.9965m    2.2964u 
 -618.70678m  699.9965m    2.2948u 
 -618.60678m  699.9965m    2.2931u 
 -618.50678m  699.9965m    2.2915u 
 -618.40678m  699.9965m    2.2899u 
 -618.30678m  699.9965m    2.2883u 
 -618.20678m  699.9965m    2.2866u 
 -618.10678m  699.9965m    2.2850u 
 -618.00678m  699.9965m    2.2834u 
 -617.90678m  699.9965m    2.2818u 
 -617.80678m  699.9965m    2.2801u 
 -617.70678m  699.9965m    2.2785u 
 -617.60678m  699.9965m    2.2769u 
 -617.50678m  699.9965m    2.2753u 
 -617.40678m  699.9965m    2.2737u 
 -617.30678m  699.9965m    2.2721u 
 -617.20678m  699.9965m    2.2704u 
 -617.10678m  699.9965m    2.2688u 
 -617.00678m  699.9965m    2.2672u 
 -616.90678m  699.9965m    2.2656u 
 -616.80678m  699.9965m    2.2640u 
 -616.70678m  699.9965m    2.2624u 
 -616.60678m  699.9965m    2.2608u 
 -616.50678m  699.9965m    2.2592u 
 -616.40678m  699.9965m    2.2576u 
 -616.30678m  699.9965m    2.2560u 
 -616.20678m  699.9965m    2.2545u 
 -616.10678m  699.9965m    2.2529u 
 -616.00678m  699.9965m    2.2513u 
 -615.90678m  699.9965m    2.2497u 
 -615.80678m  699.9965m    2.2481u 
 -615.70678m  699.9965m    2.2465u 
 -615.60678m  699.9965m    2.2449u 
 -615.50678m  699.9965m    2.2434u 
 -615.40678m  699.9965m    2.2418u 
 -615.30678m  699.9965m    2.2402u 
 -615.20678m  699.9965m    2.2386u 
 -615.10678m  699.9965m    2.2371u 
 -615.00678m  699.9966m    2.2355u 
 -614.90678m  699.9966m    2.2339u 
 -614.80678m  699.9966m    2.2323u 
 -614.70678m  699.9966m    2.2308u 
 -614.60678m  699.9966m    2.2292u 
 -614.50678m  699.9966m    2.2277u 
 -614.40678m  699.9966m    2.2261u 
 -614.30678m  699.9966m    2.2245u 
 -614.20678m  699.9966m    2.2230u 
 -614.10678m  699.9966m    2.2214u 
 -614.00678m  699.9966m    2.2199u 
 -613.90678m  699.9966m    2.2183u 
 -613.80678m  699.9966m    2.2168u 
 -613.70678m  699.9966m    2.2152u 
 -613.60678m  699.9966m    2.2137u 
 -613.50678m  699.9966m    2.2121u 
 -613.40678m  699.9966m    2.2106u 
 -613.30678m  699.9966m    2.2090u 
 -613.20678m  699.9966m    2.2075u 
 -613.10678m  699.9966m    2.2060u 
 -613.00678m  699.9966m    2.2044u 
 -612.90678m  699.9966m    2.2029u 
 -612.80678m  699.9966m    2.2013u 
 -612.70678m  699.9966m    2.1998u 
 -612.60678m  699.9966m    2.1983u 
 -612.50678m  699.9966m    2.1968u 
 -612.40678m  699.9966m    2.1952u 
 -612.30678m  699.9966m    2.1937u 
 -612.20678m  699.9966m    2.1922u 
 -612.10678m  699.9966m    2.1907u 
 -612.00678m  699.9966m    2.1891u 
 -611.90678m  699.9966m    2.1876u 
 -611.80678m  699.9966m    2.1861u 
 -611.70678m  699.9966m    2.1846u 
 -611.60678m  699.9966m    2.1831u 
 -611.50678m  699.9966m    2.1816u 
 -611.40678m  699.9966m    2.1800u 
 -611.30678m  699.9966m    2.1785u 
 -611.20678m  699.9966m    2.1770u 
 -611.10678m  699.9966m    2.1755u 
 -611.00678m  699.9966m    2.1740u 
 -610.90678m  699.9966m    2.1725u 
 -610.80678m  699.9966m    2.1710u 
 -610.70678m  699.9966m    2.1695u 
 -610.60678m  699.9966m    2.1680u 
 -610.50678m  699.9966m    2.1665u 
 -610.40678m  699.9966m    2.1650u 
 -610.30678m  699.9966m    2.1635u 
 -610.20678m  699.9967m    2.1620u 
 -610.10678m  699.9967m    2.1605u 
 -610.00678m  699.9967m    2.1591u 
 -609.90678m  699.9967m    2.1576u 
 -609.80678m  699.9967m    2.1561u 
 -609.70678m  699.9967m    2.1546u 
 -609.60678m  699.9967m    2.1531u 
 -609.50678m  699.9967m    2.1516u 
 -609.40678m  699.9967m    2.1502u 
 -609.30678m  699.9967m    2.1487u 
 -609.20678m  699.9967m    2.1472u 
 -609.10678m  699.9967m    2.1457u 
 -609.00678m  699.9967m    2.1443u 
 -608.90678m  699.9967m    2.1428u 
 -608.80678m  699.9967m    2.1413u 
 -608.70678m  699.9967m    2.1398u 
 -608.60678m  699.9967m    2.1384u 
 -608.50678m  699.9967m    2.1369u 
 -608.40678m  699.9967m    2.1355u 
 -608.30678m  699.9967m    2.1340u 
 -608.20678m  699.9967m    2.1325u 
 -608.10678m  699.9967m    2.1311u 
 -608.00678m  699.9967m    2.1296u 
 -607.90678m  699.9967m    2.1282u 
 -607.80678m  699.9967m    2.1267u 
 -607.70678m  699.9967m    2.1253u 
 -607.60678m  699.9967m    2.1238u 
 -607.50678m  699.9967m    2.1224u 
 -607.40678m  699.9967m    2.1209u 
 -607.30678m  699.9967m    2.1195u 
 -607.20678m  699.9967m    2.1180u 
 -607.10678m  699.9967m    2.1166u 
 -607.00678m  699.9967m    2.1151u 
 -606.90678m  699.9967m    2.1137u 
 -606.80678m  699.9967m    2.1122u 
 -606.70678m  699.9967m    2.1108u 
 -606.60678m  699.9967m    2.1094u 
 -606.50678m  699.9967m    2.1079u 
 -606.40678m  699.9967m    2.1065u 
 -606.30678m  699.9967m    2.1051u 
 -606.20678m  699.9967m    2.1036u 
 -606.10678m  699.9967m    2.1022u 
 -606.00678m  699.9967m    2.1008u 
 -605.90678m  699.9967m    2.0994u 
 -605.80678m  699.9967m    2.0979u 
 -605.70678m  699.9967m    2.0965u 
 -605.60678m  699.9967m    2.0951u 
 -605.50678m  699.9967m    2.0937u 
 -605.40678m  699.9967m    2.0923u 
 -605.30678m  699.9967m    2.0908u 
 -605.20678m  699.9967m    2.0894u 
 -605.10678m  699.9968m    2.0880u 
 -605.00678m  699.9968m    2.0866u 
 -604.90678m  699.9968m    2.0852u 
 -604.80678m  699.9968m    2.0838u 
 -604.70678m  699.9968m    2.0824u 
 -604.60678m  699.9968m    2.0810u 
 -604.50678m  699.9968m    2.0796u 
 -604.40678m  699.9968m    2.0782u 
 -604.30678m  699.9968m    2.0768u 
 -604.20678m  699.9968m    2.0754u 
 -604.10678m  699.9968m    2.0740u 
 -604.00678m  699.9968m    2.0726u 
 -603.90678m  699.9968m    2.0712u 
 -603.80678m  699.9968m    2.0698u 
 -603.70678m  699.9968m    2.0684u 
 -603.60678m  699.9968m    2.0670u 
 -603.50678m  699.9968m    2.0656u 
 -603.40678m  699.9968m    2.0642u 
 -603.30678m  699.9968m    2.0628u 
 -603.20678m  699.9968m    2.0614u 
 -603.10678m  699.9968m    2.0601u 
 -603.00678m  699.9968m    2.0587u 
 -602.90678m  699.9968m    2.0573u 
 -602.80678m  699.9968m    2.0559u 
 -602.70678m  699.9968m    2.0545u 
 -602.60678m  699.9968m    2.0532u 
 -602.50678m  699.9968m    2.0518u 
 -602.40678m  699.9968m    2.0504u 
 -602.30678m  699.9968m    2.0490u 
 -602.20678m  699.9968m    2.0477u 
 -602.10678m  699.9968m    2.0463u 
 -602.00678m  699.9968m    2.0449u 
 -601.90678m  699.9968m    2.0436u 
 -601.80678m  699.9968m    2.0422u 
 -601.70678m  699.9968m    2.0408u 
 -601.60678m  699.9968m    2.0395u 
 -601.50678m  699.9968m    2.0381u 
 -601.40678m  699.9968m    2.0367u 
 -601.30678m  699.9968m    2.0354u 
 -601.20678m  699.9968m    2.0340u 
 -601.10678m  699.9968m    2.0327u 
 -601.00678m  699.9968m    2.0313u 
 -600.90678m  699.9968m    2.0300u 
 -600.80678m  699.9968m    2.0286u 
 -600.70678m  699.9968m    2.0273u 
 -600.60678m  699.9968m    2.0259u 
 -600.50678m  699.9968m    2.0246u 
 -600.40678m  699.9968m    2.0232u 
 -600.30678m  699.9968m    2.0219u 
 -600.20678m  699.9968m    2.0205u 
 -600.10678m  699.9968m    2.0192u 
 -600.00678m  699.9968m    2.0178u 
 -599.90678m  699.9969m    2.0165u 
 -599.80678m  699.9969m    2.0152u 
 -599.70678m  699.9969m    2.0138u 
 -599.60678m  699.9969m    2.0125u 
 -599.50678m  699.9969m    2.0112u 
 -599.40678m  699.9969m    2.0098u 
 -599.30678m  699.9969m    2.0085u 
 -599.20678m  699.9969m    2.0072u 
 -599.10678m  699.9969m    2.0058u 
 -599.00678m  699.9969m    2.0045u 
 -598.90678m  699.9969m    2.0032u 
 -598.80678m  699.9969m    2.0019u 
 -598.70678m  699.9969m    2.0005u 
 -598.60678m  699.9969m    1.9992u 
 -598.50678m  699.9969m    1.9979u 
 -598.40678m  699.9969m    1.9966u 
 -598.30678m  699.9969m    1.9953u 
 -598.20678m  699.9969m    1.9939u 
 -598.10678m  699.9969m    1.9926u 
 -598.00678m  699.9969m    1.9913u 
 -597.90678m  699.9969m    1.9900u 
 -597.80678m  699.9969m    1.9887u 
 -597.70678m  699.9969m    1.9874u 
 -597.60678m  699.9969m    1.9861u 
 -597.50678m  699.9969m    1.9848u 
 -597.40678m  699.9969m    1.9835u 
 -597.30678m  699.9969m    1.9822u 
 -597.20678m  699.9969m    1.9809u 
 -597.10678m  699.9969m    1.9796u 
 -597.00678m  699.9969m    1.9783u 
 -596.90678m  699.9969m    1.9770u 
 -596.80678m  699.9969m    1.9757u 
 -596.70678m  699.9969m    1.9744u 
 -596.60678m  699.9969m    1.9731u 
 -596.50678m  699.9969m    1.9718u 
 -596.40678m  699.9969m    1.9705u 
 -596.30678m  699.9969m    1.9692u 
 -596.20678m  699.9969m    1.9679u 
 -596.10678m  699.9969m    1.9666u 
 -596.00678m  699.9969m    1.9653u 
 -595.90678m  699.9969m    1.9640u 
 -595.80678m  699.9969m    1.9628u 
 -595.70678m  699.9969m    1.9615u 
 -595.60678m  699.9969m    1.9602u 
 -595.50678m  699.9969m    1.9589u 
 -595.40678m  699.9969m    1.9576u 
 -595.30678m  699.9969m    1.9564u 
 -595.20678m  699.9969m    1.9551u 
 -595.10678m  699.9969m    1.9538u 
 -595.00678m  699.9969m    1.9525u 
 -594.90678m  699.9969m    1.9513u 
 -594.80678m  699.9969m    1.9500u 
 -594.70678m  699.9969m    1.9487u 
 -594.60678m  699.9969m    1.9474u 
 -594.50678m  699.9969m    1.9462u 
 -594.40678m  699.9970m    1.9449u 
 -594.30678m  699.9970m    1.9436u 
 -594.20678m  699.9970m    1.9424u 
 -594.10678m  699.9970m    1.9411u 
 -594.00678m  699.9970m    1.9399u 
 -593.90678m  699.9970m    1.9386u 
 -593.80678m  699.9970m    1.9373u 
 -593.70678m  699.9970m    1.9361u 
 -593.60678m  699.9970m    1.9348u 
 -593.50678m  699.9970m    1.9336u 
 -593.40678m  699.9970m    1.9323u 
 -593.30678m  699.9970m    1.9311u 
 -593.20678m  699.9970m    1.9298u 
 -593.10678m  699.9970m    1.9286u 
 -593.00678m  699.9970m    1.9273u 
 -592.90678m  699.9970m    1.9261u 
 -592.80678m  699.9970m    1.9248u 
 -592.70678m  699.9970m    1.9236u 
 -592.60678m  699.9970m    1.9223u 
 -592.50678m  699.9970m    1.9211u 
 -592.40678m  699.9970m    1.9199u 
 -592.30678m  699.9970m    1.9186u 
 -592.20678m  699.9970m    1.9174u 
 -592.10678m  699.9970m    1.9161u 
 -592.00678m  699.9970m    1.9149u 
 -591.90678m  699.9970m    1.9137u 
 -591.80678m  699.9970m    1.9124u 
 -591.70678m  699.9970m    1.9112u 
 -591.60678m  699.9970m    1.9100u 
 -591.50678m  699.9970m    1.9087u 
 -591.40678m  699.9970m    1.9075u 
 -591.30678m  699.9970m    1.9063u 
 -591.20678m  699.9970m    1.9051u 
 -591.10678m  699.9970m    1.9038u 
 -591.00678m  699.9970m    1.9026u 
 -590.90678m  699.9970m    1.9014u 
 -590.80678m  699.9970m    1.9002u 
 -590.70678m  699.9970m    1.8989u 
 -590.60678m  699.9970m    1.8977u 
 -590.50678m  699.9970m    1.8965u 
 -590.40678m  699.9970m    1.8953u 
 -590.30678m  699.9970m    1.8941u 
 -590.20678m  699.9970m    1.8929u 
 -590.10678m  699.9970m    1.8916u 
 -590.00678m  699.9970m    1.8904u 
 -589.90678m  699.9970m    1.8892u 
 -589.80678m  699.9970m    1.8880u 
 -589.70678m  699.9970m    1.8868u 
 -589.60678m  699.9970m    1.8856u 
 -589.50678m  699.9970m    1.8844u 
 -589.40678m  699.9970m    1.8832u 
 -589.30678m  699.9970m    1.8820u 
 -589.20678m  699.9970m    1.8808u 
 -589.10678m  699.9970m    1.8796u 
 -589.00678m  699.9970m    1.8784u 
 -588.90678m  699.9970m    1.8772u 
 -588.80678m  699.9970m    1.8760u 
 -588.70678m  699.9971m    1.8748u 
 -588.60678m  699.9971m    1.8736u 
 -588.50678m  699.9971m    1.8724u 
 -588.40678m  699.9971m    1.8712u 
 -588.30678m  699.9971m    1.8700u 
 -588.20678m  699.9971m    1.8688u 
 -588.10678m  699.9971m    1.8676u 
 -588.00678m  699.9971m    1.8664u 
 -587.90678m  699.9971m    1.8653u 
 -587.80678m  699.9971m    1.8641u 
 -587.70678m  699.9971m    1.8629u 
 -587.60678m  699.9971m    1.8617u 
 -587.50678m  699.9971m    1.8605u 
 -587.40678m  699.9971m    1.8593u 
 -587.30678m  699.9971m    1.8582u 
 -587.20678m  699.9971m    1.8570u 
 -587.10678m  699.9971m    1.8558u 
 -587.00678m  699.9971m    1.8546u 
 -586.90678m  699.9971m    1.8534u 
 -586.80678m  699.9971m    1.8523u 
 -586.70678m  699.9971m    1.8511u 
 -586.60678m  699.9971m    1.8499u 
 -586.50678m  699.9971m    1.8488u 
 -586.40678m  699.9971m    1.8476u 
 -586.30678m  699.9971m    1.8464u 
 -586.20678m  699.9971m    1.8452u 
 -586.10678m  699.9971m    1.8441u 
 -586.00678m  699.9971m    1.8429u 
 -585.90678m  699.9971m    1.8418u 
 -585.80678m  699.9971m    1.8406u 
 -585.70678m  699.9971m    1.8394u 
 -585.60678m  699.9971m    1.8383u 
 -585.50678m  699.9971m    1.8371u 
 -585.40678m  699.9971m    1.8359u 
 -585.30678m  699.9971m    1.8348u 
 -585.20678m  699.9971m    1.8336u 
 -585.10678m  699.9971m    1.8325u 
 -585.00678m  699.9971m    1.8313u 
 -584.90678m  699.9971m    1.8302u 
 -584.80678m  699.9971m    1.8290u 
 -584.70678m  699.9971m    1.8279u 
 -584.60678m  699.9971m    1.8267u 
 -584.50678m  699.9971m    1.8256u 
 -584.40678m  699.9971m    1.8244u 
 -584.30678m  699.9971m    1.8233u 
 -584.20678m  699.9971m    1.8221u 
 -584.10678m  699.9971m    1.8210u 
 -584.00678m  699.9971m    1.8198u 
 -583.90678m  699.9971m    1.8187u 
 -583.80678m  699.9971m    1.8176u 
 -583.70678m  699.9971m    1.8164u 
 -583.60678m  699.9971m    1.8153u 
 -583.50678m  699.9971m    1.8142u 
 -583.40678m  699.9971m    1.8130u 
 -583.30678m  699.9971m    1.8119u 
 -583.20678m  699.9971m    1.8107u 
 -583.10678m  699.9971m    1.8096u 
 -583.00678m  699.9971m    1.8085u 
 -582.90678m  699.9971m    1.8073u 
 -582.80678m  699.9971m    1.8062u 
 -582.70678m  699.9972m    1.8051u 
 -582.60678m  699.9972m    1.8040u 
 -582.50678m  699.9972m    1.8028u 
 -582.40678m  699.9972m    1.8017u 
 -582.30678m  699.9972m    1.8006u 
 -582.20678m  699.9972m    1.7995u 
 -582.10678m  699.9972m    1.7983u 
 -582.00678m  699.9972m    1.7972u 
 -581.90678m  699.9972m    1.7961u 
 -581.80678m  699.9972m    1.7950u 
 -581.70678m  699.9972m    1.7939u 
 -581.60678m  699.9972m    1.7927u 
 -581.50678m  699.9972m    1.7916u 
 -581.40678m  699.9972m    1.7905u 
 -581.30678m  699.9972m    1.7894u 
 -581.20678m  699.9972m    1.7883u 
 -581.10678m  699.9972m    1.7872u 
 -581.00678m  699.9972m    1.7861u 
 -580.90678m  699.9972m    1.7850u 
 -580.80678m  699.9972m    1.7839u 
 -580.70678m  699.9972m    1.7827u 
 -580.60678m  699.9972m    1.7816u 
 -580.50678m  699.9972m    1.7805u 
 -580.40678m  699.9972m    1.7794u 
 -580.30678m  699.9972m    1.7783u 
 -580.20678m  699.9972m    1.7772u 
 -580.10678m  699.9972m    1.7761u 
 -580.00678m  699.9972m    1.7750u 
 -579.90678m  699.9972m    1.7739u 
 -579.80678m  699.9972m    1.7728u 
 -579.70678m  699.9972m    1.7717u 
 -579.60678m  699.9972m    1.7706u 
 -579.50678m  699.9972m    1.7695u 
 -579.40678m  699.9972m    1.7684u 
 -579.30678m  699.9972m    1.7674u 
 -579.20678m  699.9972m    1.7663u 
 -579.10678m  699.9972m    1.7652u 
 -579.00678m  699.9972m    1.7641u 
 -578.90678m  699.9972m    1.7630u 
 -578.80678m  699.9972m    1.7619u 
 -578.70678m  699.9972m    1.7608u 
 -578.60678m  699.9972m    1.7597u 
 -578.50678m  699.9972m    1.7587u 
 -578.40678m  699.9972m    1.7576u 
 -578.30678m  699.9972m    1.7565u 
 -578.20678m  699.9972m    1.7554u 
 -578.10678m  699.9972m    1.7543u 
 -578.00678m  699.9972m    1.7532u 
 -577.90678m  699.9972m    1.7522u 
 -577.80678m  699.9972m    1.7511u 
 -577.70678m  699.9972m    1.7500u 
 -577.60678m  699.9972m    1.7489u 
 -577.50678m  699.9972m    1.7479u 
 -577.40678m  699.9972m    1.7468u 
 -577.30678m  699.9972m    1.7457u 
 -577.20678m  699.9972m    1.7447u 
 -577.10678m  699.9972m    1.7436u 
 -577.00678m  699.9972m    1.7425u 
 -576.90678m  699.9972m    1.7414u 
 -576.80678m  699.9972m    1.7404u 
 -576.70678m  699.9972m    1.7393u 
 -576.60678m  699.9972m    1.7382u 
 -576.50678m  699.9972m    1.7372u 
 -576.40678m  699.9973m    1.7361u 
 -576.30678m  699.9973m    1.7351u 
 -576.20678m  699.9973m    1.7340u 
 -576.10678m  699.9973m    1.7329u 
 -576.00678m  699.9973m    1.7319u 
 -575.90678m  699.9973m    1.7308u 
 -575.80678m  699.9973m    1.7298u 
 -575.70678m  699.9973m    1.7287u 
 -575.60678m  699.9973m    1.7277u 
 -575.50678m  699.9973m    1.7266u 
 -575.40678m  699.9973m    1.7255u 
 -575.30678m  699.9973m    1.7245u 
 -575.20678m  699.9973m    1.7234u 
 -575.10678m  699.9973m    1.7224u 
 -575.00678m  699.9973m    1.7213u 
 -574.90678m  699.9973m    1.7203u 
 -574.80678m  699.9973m    1.7192u 
 -574.70678m  699.9973m    1.7182u 
 -574.60678m  699.9973m    1.7172u 
 -574.50678m  699.9973m    1.7161u 
 -574.40678m  699.9973m    1.7151u 
 -574.30678m  699.9973m    1.7140u 
 -574.20678m  699.9973m    1.7130u 
 -574.10678m  699.9973m    1.7119u 
 -574.00678m  699.9973m    1.7109u 
 -573.90678m  699.9973m    1.7099u 
 -573.80678m  699.9973m    1.7088u 
 -573.70678m  699.9973m    1.7078u 
 -573.60678m  699.9973m    1.7068u 
 -573.50678m  699.9973m    1.7057u 
 -573.40678m  699.9973m    1.7047u 
 -573.30678m  699.9973m    1.7037u 
 -573.20678m  699.9973m    1.7026u 
 -573.10678m  699.9973m    1.7016u 
 -573.00678m  699.9973m    1.7006u 
 -572.90678m  699.9973m    1.6995u 
 -572.80678m  699.9973m    1.6985u 
 -572.70678m  699.9973m    1.6975u 
 -572.60678m  699.9973m    1.6965u 
 -572.50678m  699.9973m    1.6954u 
 -572.40678m  699.9973m    1.6944u 
 -572.30678m  699.9973m    1.6934u 
 -572.20678m  699.9973m    1.6924u 
 -572.10678m  699.9973m    1.6913u 
 -572.00678m  699.9973m    1.6903u 
 -571.90678m  699.9973m    1.6893u 
 -571.80678m  699.9973m    1.6883u 
 -571.70678m  699.9973m    1.6873u 
 -571.60678m  699.9973m    1.6863u 
 -571.50678m  699.9973m    1.6852u 
 -571.40678m  699.9973m    1.6842u 
 -571.30678m  699.9973m    1.6832u 
 -571.20678m  699.9973m    1.6822u 
 -571.10678m  699.9973m    1.6812u 
 -571.00678m  699.9973m    1.6802u 
 -570.90678m  699.9973m    1.6792u 
 -570.80678m  699.9973m    1.6782u 
 -570.70678m  699.9973m    1.6771u 
 -570.60678m  699.9973m    1.6761u 
 -570.50678m  699.9973m    1.6751u 
 -570.40678m  699.9973m    1.6741u 
 -570.30678m  699.9973m    1.6731u 
 -570.20678m  699.9973m    1.6721u 
 -570.10678m  699.9973m    1.6711u 
 -570.00678m  699.9973m    1.6701u 
 -569.90678m  699.9973m    1.6691u 
 -569.80678m  699.9973m    1.6681u 
 -569.70678m  699.9974m    1.6671u 
 -569.60678m  699.9974m    1.6661u 
 -569.50678m  699.9974m    1.6651u 
 -569.40678m  699.9974m    1.6641u 
 -569.30678m  699.9974m    1.6631u 
 -569.20678m  699.9974m    1.6621u 
 -569.10678m  699.9974m    1.6611u 
 -569.00678m  699.9974m    1.6602u 
 -568.90678m  699.9974m    1.6592u 
 -568.80678m  699.9974m    1.6582u 
 -568.70678m  699.9974m    1.6572u 
 -568.60678m  699.9974m    1.6562u 
 -568.50678m  699.9974m    1.6552u 
 -568.40678m  699.9974m    1.6542u 
 -568.30678m  699.9974m    1.6532u 
 -568.20678m  699.9974m    1.6522u 
 -568.10678m  699.9974m    1.6513u 
 -568.00678m  699.9974m    1.6503u 
 -567.90678m  699.9974m    1.6493u 
 -567.80678m  699.9974m    1.6483u 
 -567.70678m  699.9974m    1.6473u 
 -567.60678m  699.9974m    1.6464u 
 -567.50678m  699.9974m    1.6454u 
 -567.40678m  699.9974m    1.6444u 
 -567.30678m  699.9974m    1.6434u 
 -567.20678m  699.9974m    1.6424u 
 -567.10678m  699.9974m    1.6415u 
 -567.00678m  699.9974m    1.6405u 
 -566.90678m  699.9974m    1.6395u 
 -566.80678m  699.9974m    1.6386u 
 -566.70678m  699.9974m    1.6376u 
 -566.60678m  699.9974m    1.6366u 
 -566.50678m  699.9974m    1.6356u 
 -566.40678m  699.9974m    1.6347u 
 -566.30678m  699.9974m    1.6337u 
 -566.20678m  699.9974m    1.6327u 
 -566.10678m  699.9974m    1.6318u 
 -566.00678m  699.9974m    1.6308u 
 -565.90678m  699.9974m    1.6298u 
 -565.80678m  699.9974m    1.6289u 
 -565.70678m  699.9974m    1.6279u 
 -565.60678m  699.9974m    1.6269u 
 -565.50678m  699.9974m    1.6260u 
 -565.40678m  699.9974m    1.6250u 
 -565.30678m  699.9974m    1.6241u 
 -565.20678m  699.9974m    1.6231u 
 -565.10678m  699.9974m    1.6222u 
 -565.00678m  699.9974m    1.6212u 
 -564.90678m  699.9974m    1.6202u 
 -564.80678m  699.9974m    1.6193u 
 -564.70678m  699.9974m    1.6183u 
 -564.60678m  699.9974m    1.6174u 
 -564.50678m  699.9974m    1.6164u 
 -564.40678m  699.9974m    1.6155u 
 -564.30678m  699.9974m    1.6145u 
 -564.20678m  699.9974m    1.6136u 
 -564.10678m  699.9974m    1.6126u 
 -564.00678m  699.9974m    1.6117u 
 -563.90678m  699.9974m    1.6107u 
 -563.80678m  699.9974m    1.6098u 
 -563.70678m  699.9974m    1.6088u 
 -563.60678m  699.9974m    1.6079u 
 -563.50678m  699.9974m    1.6069u 
 -563.40678m  699.9974m    1.6060u 
 -563.30678m  699.9974m    1.6051u 
 -563.20678m  699.9974m    1.6041u 
 -563.10678m  699.9974m    1.6032u 
 -563.00678m  699.9974m    1.6022u 
 -562.90678m  699.9974m    1.6013u 
 -562.80678m  699.9974m    1.6004u 
 -562.70678m  699.9975m    1.5994u 
 -562.60678m  699.9975m    1.5985u 
 -562.50678m  699.9975m    1.5976u 
 -562.40678m  699.9975m    1.5966u 
 -562.30678m  699.9975m    1.5957u 
 -562.20678m  699.9975m    1.5947u 
 -562.10678m  699.9975m    1.5938u 
 -562.00678m  699.9975m    1.5929u 
 -561.90678m  699.9975m    1.5920u 
 -561.80678m  699.9975m    1.5910u 
 -561.70678m  699.9975m    1.5901u 
 -561.60678m  699.9975m    1.5892u 
 -561.50678m  699.9975m    1.5882u 
 -561.40678m  699.9975m    1.5873u 
 -561.30678m  699.9975m    1.5864u 
 -561.20678m  699.9975m    1.5855u 
 -561.10678m  699.9975m    1.5845u 
 -561.00678m  699.9975m    1.5836u 
 -560.90678m  699.9975m    1.5827u 
 -560.80678m  699.9975m    1.5818u 
 -560.70678m  699.9975m    1.5809u 
 -560.60678m  699.9975m    1.5799u 
 -560.50678m  699.9975m    1.5790u 
 -560.40678m  699.9975m    1.5781u 
 -560.30678m  699.9975m    1.5772u 
 -560.20678m  699.9975m    1.5763u 
 -560.10678m  699.9975m    1.5753u 
 -560.00678m  699.9975m    1.5744u 
 -559.90678m  699.9975m    1.5735u 
 -559.80678m  699.9975m    1.5726u 
 -559.70678m  699.9975m    1.5717u 
 -559.60678m  699.9975m    1.5708u 
 -559.50678m  699.9975m    1.5699u 
 -559.40678m  699.9975m    1.5690u 
 -559.30678m  699.9975m    1.5680u 
 -559.20678m  699.9975m    1.5671u 
 -559.10678m  699.9975m    1.5662u 
 -559.00678m  699.9975m    1.5653u 
 -558.90678m  699.9975m    1.5644u 
 -558.80678m  699.9975m    1.5635u 
 -558.70678m  699.9975m    1.5626u 
 -558.60678m  699.9975m    1.5617u 
 -558.50678m  699.9975m    1.5608u 
 -558.40678m  699.9975m    1.5599u 
 -558.30678m  699.9975m    1.5590u 
 -558.20678m  699.9975m    1.5581u 
 -558.10678m  699.9975m    1.5572u 
 -558.00678m  699.9975m    1.5563u 
 -557.90678m  699.9975m    1.5554u 
 -557.80678m  699.9975m    1.5545u 
 -557.70678m  699.9975m    1.5536u 
 -557.60678m  699.9975m    1.5527u 
 -557.50678m  699.9975m    1.5518u 
 -557.40678m  699.9975m    1.5509u 
 -557.30678m  699.9975m    1.5500u 
 -557.20678m  699.9975m    1.5491u 
 -557.10678m  699.9975m    1.5482u 
 -557.00678m  699.9975m    1.5474u 
 -556.90678m  699.9975m    1.5465u 
 -556.80678m  699.9975m    1.5456u 
 -556.70678m  699.9975m    1.5447u 
 -556.60678m  699.9975m    1.5438u 
 -556.50678m  699.9975m    1.5429u 
 -556.40678m  699.9975m    1.5420u 
 -556.30678m  699.9975m    1.5411u 
 -556.20678m  699.9975m    1.5403u 
 -556.10678m  699.9975m    1.5394u 
 -556.00678m  699.9975m    1.5385u 
 -555.90678m  699.9975m    1.5376u 
 -555.80678m  699.9975m    1.5367u 
 -555.70678m  699.9975m    1.5358u 
 -555.60678m  699.9975m    1.5350u 
 -555.50678m  699.9975m    1.5341u 
 -555.40678m  699.9975m    1.5332u 
 -555.30678m  699.9976m    1.5323u 
 -555.20678m  699.9976m    1.5314u 
 -555.10678m  699.9976m    1.5306u 
 -555.00678m  699.9976m    1.5297u 
 -554.90678m  699.9976m    1.5288u 
 -554.80678m  699.9976m    1.5279u 
 -554.70678m  699.9976m    1.5271u 
 -554.60678m  699.9976m    1.5262u 
 -554.50678m  699.9976m    1.5253u 
 -554.40678m  699.9976m    1.5245u 
 -554.30678m  699.9976m    1.5236u 
 -554.20678m  699.9976m    1.5227u 
 -554.10678m  699.9976m    1.5218u 
 -554.00678m  699.9976m    1.5210u 
 -553.90678m  699.9976m    1.5201u 
 -553.80678m  699.9976m    1.5192u 
 -553.70678m  699.9976m    1.5184u 
 -553.60678m  699.9976m    1.5175u 
 -553.50678m  699.9976m    1.5167u 
 -553.40678m  699.9976m    1.5158u 
 -553.30678m  699.9976m    1.5149u 
 -553.20678m  699.9976m    1.5141u 
 -553.10678m  699.9976m    1.5132u 
 -553.00678m  699.9976m    1.5123u 
 -552.90678m  699.9976m    1.5115u 
 -552.80678m  699.9976m    1.5106u 
 -552.70678m  699.9976m    1.5098u 
 -552.60678m  699.9976m    1.5089u 
 -552.50678m  699.9976m    1.5081u 
 -552.40678m  699.9976m    1.5072u 
 -552.30678m  699.9976m    1.5063u 
 -552.20678m  699.9976m    1.5055u 
 -552.10678m  699.9976m    1.5046u 
 -552.00678m  699.9976m    1.5038u 
 -551.90678m  699.9976m    1.5029u 
 -551.80678m  699.9976m    1.5021u 
 -551.70678m  699.9976m    1.5012u 
 -551.60678m  699.9976m    1.5004u 
 -551.50678m  699.9976m    1.4995u 
 -551.40678m  699.9976m    1.4987u 
 -551.30678m  699.9976m    1.4978u 
 -551.20678m  699.9976m    1.4970u 
 -551.10678m  699.9976m    1.4961u 
 -551.00678m  699.9976m    1.4953u 
 -550.90678m  699.9976m    1.4944u 
 -550.80678m  699.9976m    1.4936u 
 -550.70678m  699.9976m    1.4928u 
 -550.60678m  699.9976m    1.4919u 
 -550.50678m  699.9976m    1.4911u 
 -550.40678m  699.9976m    1.4902u 
 -550.30678m  699.9976m    1.4894u 
 -550.20678m  699.9976m    1.4885u 
 -550.10678m  699.9976m    1.4877u 
 -550.00678m  699.9976m    1.4869u 
 -549.90678m  699.9976m    1.4860u 
 -549.80678m  699.9976m    1.4852u 
 -549.70678m  699.9976m    1.4844u 
 -549.60678m  699.9976m    1.4835u 
 -549.50678m  699.9976m    1.4827u 
 -549.40678m  699.9976m    1.4819u 
 -549.30678m  699.9976m    1.4810u 
 -549.20678m  699.9976m    1.4802u 
 -549.10678m  699.9976m    1.4794u 
 -549.00678m  699.9976m    1.4785u 
 -548.90678m  699.9976m    1.4777u 
 -548.80678m  699.9976m    1.4769u 
 -548.70678m  699.9976m    1.4760u 
 -548.60678m  699.9976m    1.4752u 
 -548.50678m  699.9976m    1.4744u 
 -548.40678m  699.9976m    1.4735u 
 -548.30678m  699.9976m    1.4727u 
 -548.20678m  699.9976m    1.4719u 
 -548.10678m  699.9976m    1.4711u 
 -548.00678m  699.9976m    1.4702u 
 -547.90678m  699.9976m    1.4694u 
 -547.80678m  699.9976m    1.4686u 
 -547.70678m  699.9976m    1.4678u 
 -547.60678m  699.9976m    1.4670u 
 -547.50678m  699.9977m    1.4661u 
 -547.40678m  699.9977m    1.4653u 
 -547.30678m  699.9977m    1.4645u 
 -547.20678m  699.9977m    1.4637u 
 -547.10678m  699.9977m    1.4629u 
 -547.00678m  699.9977m    1.4620u 
 -546.90678m  699.9977m    1.4612u 
 -546.80678m  699.9977m    1.4604u 
 -546.70678m  699.9977m    1.4596u 
 -546.60678m  699.9977m    1.4588u 
 -546.50678m  699.9977m    1.4580u 
 -546.40678m  699.9977m    1.4572u 
 -546.30678m  699.9977m    1.4563u 
 -546.20678m  699.9977m    1.4555u 
 -546.10678m  699.9977m    1.4547u 
 -546.00678m  699.9977m    1.4539u 
 -545.90678m  699.9977m    1.4531u 
 -545.80678m  699.9977m    1.4523u 
 -545.70678m  699.9977m    1.4515u 
 -545.60678m  699.9977m    1.4507u 
 -545.50678m  699.9977m    1.4499u 
 -545.40678m  699.9977m    1.4491u 
 -545.30678m  699.9977m    1.4483u 
 -545.20678m  699.9977m    1.4474u 
 -545.10678m  699.9977m    1.4466u 
 -545.00678m  699.9977m    1.4458u 
 -544.90678m  699.9977m    1.4450u 
 -544.80678m  699.9977m    1.4442u 
 -544.70678m  699.9977m    1.4434u 
 -544.60678m  699.9977m    1.4426u 
 -544.50678m  699.9977m    1.4418u 
 -544.40678m  699.9977m    1.4410u 
 -544.30678m  699.9977m    1.4402u 
 -544.20678m  699.9977m    1.4394u 
 -544.10678m  699.9977m    1.4386u 
 -544.00678m  699.9977m    1.4378u 
 -543.90678m  699.9977m    1.4370u 
 -543.80678m  699.9977m    1.4362u 
 -543.70678m  699.9977m    1.4355u 
 -543.60678m  699.9977m    1.4347u 
 -543.50678m  699.9977m    1.4339u 
 -543.40678m  699.9977m    1.4331u 
 -543.30678m  699.9977m    1.4323u 
 -543.20678m  699.9977m    1.4315u 
 -543.10678m  699.9977m    1.4307u 
 -543.00678m  699.9977m    1.4299u 
 -542.90678m  699.9977m    1.4291u 
 -542.80678m  699.9977m    1.4283u 
 -542.70678m  699.9977m    1.4275u 
 -542.60678m  699.9977m    1.4268u 
 -542.50678m  699.9977m    1.4260u 
 -542.40678m  699.9977m    1.4252u 
 -542.30678m  699.9977m    1.4244u 
 -542.20678m  699.9977m    1.4236u 
 -542.10678m  699.9977m    1.4228u 
 -542.00678m  699.9977m    1.4220u 
 -541.90678m  699.9977m    1.4213u 
 -541.80678m  699.9977m    1.4205u 
 -541.70678m  699.9977m    1.4197u 
 -541.60678m  699.9977m    1.4189u 
 -541.50678m  699.9977m    1.4181u 
 -541.40678m  699.9977m    1.4173u 
 -541.30678m  699.9977m    1.4166u 
 -541.20678m  699.9977m    1.4158u 
 -541.10678m  699.9977m    1.4150u 
 -541.00678m  699.9977m    1.4142u 
 -540.90678m  699.9977m    1.4135u 
 -540.80678m  699.9977m    1.4127u 
 -540.70678m  699.9977m    1.4119u 
 -540.60678m  699.9977m    1.4111u 
 -540.50678m  699.9977m    1.4104u 
 -540.40678m  699.9977m    1.4096u 
 -540.30678m  699.9977m    1.4088u 
 -540.20678m  699.9977m    1.4080u 
 -540.10678m  699.9977m    1.4073u 
 -540.00678m  699.9977m    1.4065u 
 -539.90678m  699.9977m    1.4057u 
 -539.80678m  699.9977m    1.4050u 
 -539.70678m  699.9977m    1.4042u 
 -539.60678m  699.9977m    1.4034u 
 -539.50678m  699.9977m    1.4027u 
 -539.40678m  699.9977m    1.4019u 
 -539.30678m  699.9978m    1.4011u 
 -539.20678m  699.9978m    1.4004u 
 -539.10678m  699.9978m    1.3996u 
 -539.00678m  699.9978m    1.3988u 
 -538.90678m  699.9978m    1.3981u 
 -538.80678m  699.9978m    1.3973u 
 -538.70678m  699.9978m    1.3965u 
 -538.60678m  699.9978m    1.3958u 
 -538.50678m  699.9978m    1.3950u 
 -538.40678m  699.9978m    1.3943u 
 -538.30678m  699.9978m    1.3935u 
 -538.20678m  699.9978m    1.3927u 
 -538.10678m  699.9978m    1.3920u 
 -538.00678m  699.9978m    1.3912u 
 -537.90678m  699.9978m    1.3905u 
 -537.80678m  699.9978m    1.3897u 
 -537.70678m  699.9978m    1.3889u 
 -537.60678m  699.9978m    1.3882u 
 -537.50678m  699.9978m    1.3874u 
 -537.40678m  699.9978m    1.3867u 
 -537.30678m  699.9978m    1.3859u 
 -537.20678m  699.9978m    1.3852u 
 -537.10678m  699.9978m    1.3844u 
 -537.00678m  699.9978m    1.3837u 
 -536.90678m  699.9978m    1.3829u 
 -536.80678m  699.9978m    1.3822u 
 -536.70678m  699.9978m    1.3814u 
 -536.60678m  699.9978m    1.3807u 
 -536.50678m  699.9978m    1.3799u 
 -536.40678m  699.9978m    1.3792u 
 -536.30678m  699.9978m    1.3784u 
 -536.20678m  699.9978m    1.3777u 
 -536.10678m  699.9978m    1.3769u 
 -536.00678m  699.9978m    1.3762u 
 -535.90678m  699.9978m    1.3754u 
 -535.80678m  699.9978m    1.3747u 
 -535.70678m  699.9978m    1.3739u 
 -535.60678m  699.9978m    1.3732u 
 -535.50678m  699.9978m    1.3725u 
 -535.40678m  699.9978m    1.3717u 
 -535.30678m  699.9978m    1.3710u 
 -535.20678m  699.9978m    1.3702u 
 -535.10678m  699.9978m    1.3695u 
 -535.00678m  699.9978m    1.3688u 
 -534.90678m  699.9978m    1.3680u 
 -534.80678m  699.9978m    1.3673u 
 -534.70678m  699.9978m    1.3665u 
 -534.60678m  699.9978m    1.3658u 
 -534.50678m  699.9978m    1.3651u 
 -534.40678m  699.9978m    1.3643u 
 -534.30678m  699.9978m    1.3636u 
 -534.20678m  699.9978m    1.3629u 
 -534.10678m  699.9978m    1.3621u 
 -534.00678m  699.9978m    1.3614u 
 -533.90678m  699.9978m    1.3607u 
 -533.80678m  699.9978m    1.3599u 
 -533.70678m  699.9978m    1.3592u 
 -533.60678m  699.9978m    1.3585u 
 -533.50678m  699.9978m    1.3577u 
 -533.40678m  699.9978m    1.3570u 
 -533.30678m  699.9978m    1.3563u 
 -533.20678m  699.9978m    1.3555u 
 -533.10678m  699.9978m    1.3548u 
 -533.00678m  699.9978m    1.3541u 
 -532.90678m  699.9978m    1.3534u 
 -532.80678m  699.9978m    1.3526u 
 -532.70678m  699.9978m    1.3519u 
 -532.60678m  699.9978m    1.3512u 
 -532.50678m  699.9978m    1.3505u 
 -532.40678m  699.9978m    1.3497u 
 -532.30678m  699.9978m    1.3490u 
 -532.20678m  699.9978m    1.3483u 
 -532.10678m  699.9978m    1.3476u 
 -532.00678m  699.9978m    1.3468u 
 -531.90678m  699.9978m    1.3461u 
 -531.80678m  699.9978m    1.3454u 
 -531.70678m  699.9978m    1.3447u 
 -531.60678m  699.9978m    1.3440u 
 -531.50678m  699.9978m    1.3432u 
 -531.40678m  699.9978m    1.3425u 
 -531.30678m  699.9978m    1.3418u 
 -531.20678m  699.9978m    1.3411u 
 -531.10678m  699.9978m    1.3404u 
 -531.00678m  699.9978m    1.3397u 
 -530.90678m  699.9978m    1.3389u 
 -530.80678m  699.9978m    1.3382u 
 -530.70678m  699.9978m    1.3375u 
 -530.60678m  699.9978m    1.3368u 
 -530.50678m  699.9979m    1.3361u 
 -530.40678m  699.9979m    1.3354u 
 -530.30678m  699.9979m    1.3347u 
 -530.20678m  699.9979m    1.3339u 
 -530.10678m  699.9979m    1.3332u 
 -530.00678m  699.9979m    1.3325u 
 -529.90678m  699.9979m    1.3318u 
 -529.80678m  699.9979m    1.3311u 
 -529.70678m  699.9979m    1.3304u 
 -529.60678m  699.9979m    1.3297u 
 -529.50678m  699.9979m    1.3290u 
 -529.40678m  699.9979m    1.3283u 
 -529.30678m  699.9979m    1.3276u 
 -529.20678m  699.9979m    1.3269u 
 -529.10678m  699.9979m    1.3262u 
 -529.00678m  699.9979m    1.3254u 
 -528.90678m  699.9979m    1.3247u 
 -528.80678m  699.9979m    1.3240u 
 -528.70678m  699.9979m    1.3233u 
 -528.60678m  699.9979m    1.3226u 
 -528.50678m  699.9979m    1.3219u 
 -528.40678m  699.9979m    1.3212u 
 -528.30678m  699.9979m    1.3205u 
 -528.20678m  699.9979m    1.3198u 
 -528.10678m  699.9979m    1.3191u 
 -528.00678m  699.9979m    1.3184u 
 -527.90678m  699.9979m    1.3177u 
 -527.80678m  699.9979m    1.3170u 
 -527.70678m  699.9979m    1.3163u 
 -527.60678m  699.9979m    1.3156u 
 -527.50678m  699.9979m    1.3149u 
 -527.40678m  699.9979m    1.3142u 
 -527.30678m  699.9979m    1.3135u 
 -527.20678m  699.9979m    1.3129u 
 -527.10678m  699.9979m    1.3122u 
 -527.00678m  699.9979m    1.3115u 
 -526.90678m  699.9979m    1.3108u 
 -526.80678m  699.9979m    1.3101u 
 -526.70678m  699.9979m    1.3094u 
 -526.60678m  699.9979m    1.3087u 
 -526.50678m  699.9979m    1.3080u 
 -526.40678m  699.9979m    1.3073u 
 -526.30678m  699.9979m    1.3066u 
 -526.20678m  699.9979m    1.3059u 
 -526.10678m  699.9979m    1.3052u 
 -526.00678m  699.9979m    1.3046u 
 -525.90678m  699.9979m    1.3039u 
 -525.80678m  699.9979m    1.3032u 
 -525.70678m  699.9979m    1.3025u 
 -525.60678m  699.9979m    1.3018u 
 -525.50678m  699.9979m    1.3011u 
 -525.40678m  699.9979m    1.3004u 
 -525.30678m  699.9979m    1.2998u 
 -525.20678m  699.9979m    1.2991u 
 -525.10678m  699.9979m    1.2984u 
 -525.00678m  699.9979m    1.2977u 
 -524.90678m  699.9979m    1.2970u 
 -524.80678m  699.9979m    1.2963u 
 -524.70678m  699.9979m    1.2957u 
 -524.60678m  699.9979m    1.2950u 
 -524.50678m  699.9979m    1.2943u 
 -524.40678m  699.9979m    1.2936u 
 -524.30678m  699.9979m    1.2929u 
 -524.20678m  699.9979m    1.2923u 
 -524.10678m  699.9979m    1.2916u 
 -524.00678m  699.9979m    1.2909u 
 -523.90678m  699.9979m    1.2902u 
 -523.80678m  699.9979m    1.2896u 
 -523.70678m  699.9979m    1.2889u 
 -523.60678m  699.9979m    1.2882u 
 -523.50678m  699.9979m    1.2875u 
 -523.40678m  699.9979m    1.2869u 
 -523.30678m  699.9979m    1.2862u 
 -523.20678m  699.9979m    1.2855u 
 -523.10678m  699.9979m    1.2848u 
 -523.00678m  699.9979m    1.2842u 
 -522.90678m  699.9979m    1.2835u 
 -522.80678m  699.9979m    1.2828u 
 -522.70678m  699.9979m    1.2821u 
 -522.60678m  699.9979m    1.2815u 
 -522.50678m  699.9979m    1.2808u 
 -522.40678m  699.9979m    1.2801u 
 -522.30678m  699.9979m    1.2795u 
 -522.20678m  699.9979m    1.2788u 
 -522.10678m  699.9979m    1.2781u 
 -522.00678m  699.9979m    1.2775u 
 -521.90678m  699.9979m    1.2768u 
 -521.80678m  699.9979m    1.2761u 
 -521.70678m  699.9979m    1.2755u 
 -521.60678m  699.9979m    1.2748u 
 -521.50678m  699.9979m    1.2741u 
 -521.40678m  699.9979m    1.2735u 
 -521.30678m  699.9979m    1.2728u 
 -521.20678m  699.9980m    1.2722u 
 -521.10678m  699.9980m    1.2715u 
 -521.00678m  699.9980m    1.2708u 
 -520.90678m  699.9980m    1.2702u 
 -520.80678m  699.9980m    1.2695u 
 -520.70678m  699.9980m    1.2688u 
 -520.60678m  699.9980m    1.2682u 
 -520.50678m  699.9980m    1.2675u 
 -520.40678m  699.9980m    1.2669u 
 -520.30678m  699.9980m    1.2662u 
 -520.20678m  699.9980m    1.2656u 
 -520.10678m  699.9980m    1.2649u 
 -520.00678m  699.9980m    1.2642u 
 -519.90678m  699.9980m    1.2636u 
 -519.80678m  699.9980m    1.2629u 
 -519.70678m  699.9980m    1.2623u 
 -519.60678m  699.9980m    1.2616u 
 -519.50678m  699.9980m    1.2610u 
 -519.40678m  699.9980m    1.2603u 
 -519.30678m  699.9980m    1.2597u 
 -519.20678m  699.9980m    1.2590u 
 -519.10678m  699.9980m    1.2584u 
 -519.00678m  699.9980m    1.2577u 
 -518.90678m  699.9980m    1.2570u 
 -518.80678m  699.9980m    1.2564u 
 -518.70678m  699.9980m    1.2557u 
 -518.60678m  699.9980m    1.2551u 
 -518.50678m  699.9980m    1.2544u 
 -518.40678m  699.9980m    1.2538u 
 -518.30678m  699.9980m    1.2532u 
 -518.20678m  699.9980m    1.2525u 
 -518.10678m  699.9980m    1.2519u 
 -518.00678m  699.9980m    1.2512u 
 -517.90678m  699.9980m    1.2506u 
 -517.80678m  699.9980m    1.2499u 
 -517.70678m  699.9980m    1.2493u 
 -517.60678m  699.9980m    1.2486u 
 -517.50678m  699.9980m    1.2480u 
 -517.40678m  699.9980m    1.2473u 
 -517.30678m  699.9980m    1.2467u 
 -517.20678m  699.9980m    1.2461u 
 -517.10678m  699.9980m    1.2454u 
 -517.00678m  699.9980m    1.2448u 
 -516.90678m  699.9980m    1.2441u 
 -516.80678m  699.9980m    1.2435u 
 -516.70678m  699.9980m    1.2429u 
 -516.60678m  699.9980m    1.2422u 
 -516.50678m  699.9980m    1.2416u 
 -516.40678m  699.9980m    1.2409u 
 -516.30678m  699.9980m    1.2403u 
 -516.20678m  699.9980m    1.2397u 
 -516.10678m  699.9980m    1.2390u 
 -516.00678m  699.9980m    1.2384u 
 -515.90678m  699.9980m    1.2377u 
 -515.80678m  699.9980m    1.2371u 
 -515.70678m  699.9980m    1.2365u 
 -515.60678m  699.9980m    1.2358u 
 -515.50678m  699.9980m    1.2352u 
 -515.40678m  699.9980m    1.2346u 
 -515.30678m  699.9980m    1.2339u 
 -515.20678m  699.9980m    1.2333u 
 -515.10678m  699.9980m    1.2327u 
 -515.00678m  699.9980m    1.2320u 
 -514.90678m  699.9980m    1.2314u 
 -514.80678m  699.9980m    1.2308u 
 -514.70678m  699.9980m    1.2302u 
 -514.60678m  699.9980m    1.2295u 
 -514.50678m  699.9980m    1.2289u 
 -514.40678m  699.9980m    1.2283u 
 -514.30678m  699.9980m    1.2276u 
 -514.20678m  699.9980m    1.2270u 
 -514.10678m  699.9980m    1.2264u 
 -514.00678m  699.9980m    1.2258u 
 -513.90678m  699.9980m    1.2251u 
 -513.80678m  699.9980m    1.2245u 
 -513.70678m  699.9980m    1.2239u 
 -513.60678m  699.9980m    1.2232u 
 -513.50678m  699.9980m    1.2226u 
 -513.40678m  699.9980m    1.2220u 
 -513.30678m  699.9980m    1.2214u 
 -513.20678m  699.9980m    1.2208u 
 -513.10678m  699.9980m    1.2201u 
 -513.00678m  699.9980m    1.2195u 
 -512.90678m  699.9980m    1.2189u 
 -512.80678m  699.9980m    1.2183u 
 -512.70678m  699.9980m    1.2176u 
 -512.60678m  699.9980m    1.2170u 
 -512.50678m  699.9980m    1.2164u 
 -512.40678m  699.9980m    1.2158u 
 -512.30678m  699.9980m    1.2152u 
 -512.20678m  699.9980m    1.2145u 
 -512.10678m  699.9980m    1.2139u 
 -512.00678m  699.9980m    1.2133u 
 -511.90678m  699.9980m    1.2127u 
 -511.80678m  699.9980m    1.2121u 
 -511.70678m  699.9980m    1.2115u 
 -511.60678m  699.9980m    1.2108u 
 -511.50678m  699.9980m    1.2102u 
 -511.40678m  699.9980m    1.2096u 
 -511.30678m  699.9980m    1.2090u 
 -511.20678m  699.9981m    1.2084u 
 -511.10678m  699.9981m    1.2078u 
 -511.00678m  699.9981m    1.2072u 
 -510.90678m  699.9981m    1.2065u 
 -510.80678m  699.9981m    1.2059u 
 -510.70678m  699.9981m    1.2053u 
 -510.60678m  699.9981m    1.2047u 
 -510.50678m  699.9981m    1.2041u 
 -510.40678m  699.9981m    1.2035u 
 -510.30678m  699.9981m    1.2029u 
 -510.20678m  699.9981m    1.2023u 
 -510.10678m  699.9981m    1.2017u 
 -510.00678m  699.9981m    1.2011u 
 -509.90678m  699.9981m    1.2004u 
 -509.80678m  699.9981m    1.1998u 
 -509.70678m  699.9981m    1.1992u 
 -509.60678m  699.9981m    1.1986u 
 -509.50678m  699.9981m    1.1980u 
 -509.40678m  699.9981m    1.1974u 
 -509.30678m  699.9981m    1.1968u 
 -509.20678m  699.9981m    1.1962u 
 -509.10678m  699.9981m    1.1956u 
 -509.00678m  699.9981m    1.1950u 
 -508.90678m  699.9981m    1.1944u 
 -508.80678m  699.9981m    1.1938u 
 -508.70678m  699.9981m    1.1932u 
 -508.60678m  699.9981m    1.1926u 
 -508.50678m  699.9981m    1.1920u 
 -508.40678m  699.9981m    1.1914u 
 -508.30678m  699.9981m    1.1908u 
 -508.20678m  699.9981m    1.1902u 
 -508.10678m  699.9981m    1.1896u 
 -508.00678m  699.9981m    1.1890u 
 -507.90678m  699.9981m    1.1884u 
 -507.80678m  699.9981m    1.1878u 
 -507.70678m  699.9981m    1.1872u 
 -507.60678m  699.9981m    1.1866u 
 -507.50678m  699.9981m    1.1860u 
 -507.40678m  699.9981m    1.1854u 
 -507.30678m  699.9981m    1.1848u 
 -507.20678m  699.9981m    1.1842u 
 -507.10678m  699.9981m    1.1836u 
 -507.00678m  699.9981m    1.1830u 
 -506.90678m  699.9981m    1.1824u 
 -506.80678m  699.9981m    1.1818u 
 -506.70678m  699.9981m    1.1812u 
 -506.60678m  699.9981m    1.1806u 
 -506.50678m  699.9981m    1.1801u 
 -506.40678m  699.9981m    1.1795u 
 -506.30678m  699.9981m    1.1789u 
 -506.20678m  699.9981m    1.1783u 
 -506.10678m  699.9981m    1.1777u 
 -506.00678m  699.9981m    1.1771u 
 -505.90678m  699.9981m    1.1765u 
 -505.80678m  699.9981m    1.1759u 
 -505.70678m  699.9981m    1.1753u 
 -505.60678m  699.9981m    1.1747u 
 -505.50678m  699.9981m    1.1741u 
 -505.40678m  699.9981m    1.1736u 
 -505.30678m  699.9981m    1.1730u 
 -505.20678m  699.9981m    1.1724u 
 -505.10678m  699.9981m    1.1718u 
 -505.00678m  699.9981m    1.1712u 
 -504.90678m  699.9981m    1.1706u 
 -504.80678m  699.9981m    1.1700u 
 -504.70678m  699.9981m    1.1695u 
 -504.60678m  699.9981m    1.1689u 
 -504.50678m  699.9981m    1.1683u 
 -504.40678m  699.9981m    1.1677u 
 -504.30678m  699.9981m    1.1671u 
 -504.20678m  699.9981m    1.1665u 
 -504.10678m  699.9981m    1.1660u 
 -504.00678m  699.9981m    1.1654u 
 -503.90678m  699.9981m    1.1648u 
 -503.80678m  699.9981m    1.1642u 
 -503.70678m  699.9981m    1.1636u 
 -503.60678m  699.9981m    1.1631u 
 -503.50678m  699.9981m    1.1625u 
 -503.40678m  699.9981m    1.1619u 
 -503.30678m  699.9981m    1.1613u 
 -503.20678m  699.9981m    1.1607u 
 -503.10678m  699.9981m    1.1602u 
 -503.00678m  699.9981m    1.1596u 
 -502.90678m  699.9981m    1.1590u 
 -502.80678m  699.9981m    1.1584u 
 -502.70678m  699.9981m    1.1579u 
 -502.60678m  699.9981m    1.1573u 
 -502.50678m  699.9981m    1.1567u 
 -502.40678m  699.9981m    1.1561u 
 -502.30678m  699.9981m    1.1556u 
 -502.20678m  699.9981m    1.1550u 
 -502.10678m  699.9981m    1.1544u 
 -502.00678m  699.9981m    1.1538u 
 -501.90678m  699.9981m    1.1533u 
 -501.80678m  699.9981m    1.1527u 
 -501.70678m  699.9981m    1.1521u 
 -501.60678m  699.9981m    1.1515u 
 -501.50678m  699.9981m    1.1510u 
 -501.40678m  699.9981m    1.1504u 
 -501.30678m  699.9981m    1.1498u 
 -501.20678m  699.9981m    1.1493u 
 -501.10678m  699.9981m    1.1487u 
 -501.00678m  699.9981m    1.1481u 
 -500.90678m  699.9981m    1.1476u 
 -500.80678m  699.9981m    1.1470u 
 -500.70678m  699.9981m    1.1464u 
 -500.60678m  699.9982m    1.1459u 
 -500.50678m  699.9982m    1.1453u 
 -500.40678m  699.9982m    1.1447u 
 -500.30678m  699.9982m    1.1442u 
 -500.20678m  699.9982m    1.1436u 
 -500.10678m  699.9982m    1.1430u 
 -500.00678m  699.9982m    1.1425u 
 -499.90678m  699.9982m    1.1419u 
 -499.80678m  699.9982m    1.1413u 
 -499.70678m  699.9982m    1.1408u 
 -499.60678m  699.9982m    1.1402u 
 -499.50678m  699.9982m    1.1396u 
 -499.40678m  699.9982m    1.1391u 
 -499.30678m  699.9982m    1.1385u 
 -499.20678m  699.9982m    1.1380u 
 -499.10678m  699.9982m    1.1374u 
 -499.00678m  699.9982m    1.1368u 
 -498.90678m  699.9982m    1.1363u 
 -498.80678m  699.9982m    1.1357u 
 -498.70678m  699.9982m    1.1352u 
 -498.60678m  699.9982m    1.1346u 
 -498.50678m  699.9982m    1.1340u 
 -498.40678m  699.9982m    1.1335u 
 -498.30678m  699.9982m    1.1329u 
 -498.20678m  699.9982m    1.1324u 
 -498.10678m  699.9982m    1.1318u 
 -498.00678m  699.9982m    1.1312u 
 -497.90678m  699.9982m    1.1307u 
 -497.80678m  699.9982m    1.1301u 
 -497.70678m  699.9982m    1.1296u 
 -497.60678m  699.9982m    1.1290u 
 -497.50678m  699.9982m    1.1285u 
 -497.40678m  699.9982m    1.1279u 
 -497.30678m  699.9982m    1.1274u 
 -497.20678m  699.9982m    1.1268u 
 -497.10678m  699.9982m    1.1263u 
 -497.00678m  699.9982m    1.1257u 
 -496.90678m  699.9982m    1.1251u 
 -496.80678m  699.9982m    1.1246u 
 -496.70678m  699.9982m    1.1240u 
 -496.60678m  699.9982m    1.1235u 
 -496.50678m  699.9982m    1.1229u 
 -496.40678m  699.9982m    1.1224u 
 -496.30678m  699.9982m    1.1218u 
 -496.20678m  699.9982m    1.1213u 
 -496.10678m  699.9982m    1.1207u 
 -496.00678m  699.9982m    1.1202u 
 -495.90678m  699.9982m    1.1196u 
 -495.80678m  699.9982m    1.1191u 
 -495.70678m  699.9982m    1.1186u 
 -495.60678m  699.9982m    1.1180u 
 -495.50678m  699.9982m    1.1175u 
 -495.40678m  699.9982m    1.1169u 
 -495.30678m  699.9982m    1.1164u 
 -495.20678m  699.9982m    1.1158u 
 -495.10678m  699.9982m    1.1153u 
 -495.00678m  699.9982m    1.1147u 
 -494.90678m  699.9982m    1.1142u 
 -494.80678m  699.9982m    1.1136u 
 -494.70678m  699.9982m    1.1131u 
 -494.60678m  699.9982m    1.1126u 
 -494.50678m  699.9982m    1.1120u 
 -494.40678m  699.9982m    1.1115u 
 -494.30678m  699.9982m    1.1109u 
 -494.20678m  699.9982m    1.1104u 
 -494.10678m  699.9982m    1.1098u 
 -494.00678m  699.9982m    1.1093u 
 -493.90678m  699.9982m    1.1088u 
 -493.80678m  699.9982m    1.1082u 
 -493.70678m  699.9982m    1.1077u 
 -493.60678m  699.9982m    1.1071u 
 -493.50678m  699.9982m    1.1066u 
 -493.40678m  699.9982m    1.1061u 
 -493.30678m  699.9982m    1.1055u 
 -493.20678m  699.9982m    1.1050u 
 -493.10678m  699.9982m    1.1045u 
 -493.00678m  699.9982m    1.1039u 
 -492.90678m  699.9982m    1.1034u 
 -492.80678m  699.9982m    1.1028u 
 -492.70678m  699.9982m    1.1023u 
 -492.60678m  699.9982m    1.1018u 
 -492.50678m  699.9982m    1.1012u 
 -492.40678m  699.9982m    1.1007u 
 -492.30678m  699.9982m    1.1002u 
 -492.20678m  699.9982m    1.0996u 
 -492.10678m  699.9982m    1.0991u 
 -492.00678m  699.9982m    1.0986u 
 -491.90678m  699.9982m    1.0980u 
 -491.80678m  699.9982m    1.0975u 
 -491.70678m  699.9982m    1.0970u 
 -491.60678m  699.9982m    1.0964u 
 -491.50678m  699.9982m    1.0959u 
 -491.40678m  699.9982m    1.0954u 
 -491.30678m  699.9982m    1.0948u 
 -491.20678m  699.9982m    1.0943u 
 -491.10678m  699.9982m    1.0938u 
 -491.00678m  699.9982m    1.0933u 
 -490.90678m  699.9982m    1.0927u 
 -490.80678m  699.9982m    1.0922u 
 -490.70678m  699.9982m    1.0917u 
 -490.60678m  699.9982m    1.0911u 
 -490.50678m  699.9982m    1.0906u 
 -490.40678m  699.9982m    1.0901u 
 -490.30678m  699.9982m    1.0896u 
 -490.20678m  699.9982m    1.0890u 
 -490.10678m  699.9982m    1.0885u 
 -490.00678m  699.9982m    1.0880u 
[...]
  665.39322m    5.6611m  687.0728m 
  665.49322m    5.6717m  687.0504m 
  665.59322m    5.6823m  687.0280m 
  665.69322m    5.6930m  687.0055m 
  665.79322m    5.7036m  686.9830m 
  665.89322m    5.7143m  686.9604m 
  665.99322m    5.7250m  686.9378m 
  666.09322m    5.7357m  686.9152m 
  666.19322m    5.7464m  686.8926m 
  666.29322m    5.7571m  686.8699m 
  666.39322m    5.7679m  686.8472m 
  666.49322m    5.7787m  686.8244m 
  666.59322m    5.7894m  686.8017m 
  666.69322m    5.8002m  686.7788m 
  666.79322m    5.8111m  686.7560m 
  666.89322m    5.8219m  686.7331m 
  666.99322m    5.8328m  686.7102m 
  667.09322m    5.8436m  686.6873m 
  667.19322m    5.8545m  686.6643m 
  667.29322m    5.8654m  686.6413m 
  667.39322m    5.8764m  686.6183m 
  667.49322m    5.8873m  686.5952m 
  667.59322m    5.8983m  686.5721m 
  667.69322m    5.9093m  686.5490m 
  667.79322m    5.9203m  686.5258m 
  667.89322m    5.9313m  686.5026m 
  667.99322m    5.9423m  686.4794m 
  668.09322m    5.9534m  686.4561m 
  668.19322m    5.9644m  686.4328m 
  668.29322m    5.9755m  686.4095m 
  668.39322m    5.9866m  686.3861m 
  668.49322m    5.9977m  686.3627m 
  668.59322m    6.0089m  686.3393m 
  668.69322m    6.0200m  686.3158m 
  668.79322m    6.0312m  686.2923m 
  668.89322m    6.0424m  686.2688m 
  668.99322m    6.0536m  686.2452m 
  669.09322m    6.0648m  686.2216m 
  669.19322m    6.0760m  686.1980m 
  669.29322m    6.0873m  686.1743m 
  669.39322m    6.0986m  686.1506m 
  669.49322m    6.1099m  686.1269m 
  669.59322m    6.1212m  686.1031m 
  669.69322m    6.1325m  686.0793m 
  669.79322m    6.1439m  686.0555m 
  669.89322m    6.1552m  686.0316m 
  669.99322m    6.1666m  686.0077m 
  670.09322m    6.1780m  685.9838m 
  670.19322m    6.1894m  685.9598m 
  670.29322m    6.2009m  685.9359m 
  670.39322m    6.2123m  685.9118m 
  670.49322m    6.2238m  685.8878m 
  670.59322m    6.2353m  685.8637m 
  670.69322m    6.2468m  685.8395m 
  670.79322m    6.2583m  685.8154m 
  670.89322m    6.2699m  685.7912m 
  670.99322m    6.2814m  685.7669m 
  671.09322m    6.2930m  685.7427m 
  671.19322m    6.3046m  685.7184m 
  671.29322m    6.3162m  685.6941m 
  671.39322m    6.3279m  685.6697m 
  671.49322m    6.3395m  685.6453m 
  671.59322m    6.3512m  685.6209m 
  671.69322m    6.3629m  685.5964m 
  671.79322m    6.3746m  685.5719m 
  671.89322m    6.3863m  685.5474m 
  671.99322m    6.3980m  685.5228m 
  672.09322m    6.4098m  685.4982m 
  672.19322m    6.4216m  685.4736m 
  672.29322m    6.4334m  685.4489m 
  672.39322m    6.4452m  685.4242m 
  672.49322m    6.4570m  685.3995m 
  672.59322m    6.4688m  685.3747m 
  672.69322m    6.4807m  685.3499m 
  672.79322m    6.4926m  685.3251m 
  672.89322m    6.5045m  685.3002m 
  672.99322m    6.5164m  685.2753m 
  673.09322m    6.5284m  685.2504m 
  673.19322m    6.5403m  685.2254m 
  673.29322m    6.5523m  685.2004m 
  673.39322m    6.5643m  685.1754m 
  673.49322m    6.5763m  685.1503m 
  673.59322m    6.5883m  685.1252m 
  673.69322m    6.6004m  685.1000m 
  673.79322m    6.6124m  685.0749m 
  673.89322m    6.6245m  685.0497m 
  673.99322m    6.6366m  685.0244m 
  674.09322m    6.6488m  684.9991m 
  674.19322m    6.6609m  684.9738m 
  674.29322m    6.6731m  684.9485m 
  674.39322m    6.6852m  684.9231m 
  674.49322m    6.6974m  684.8977m 
  674.59322m    6.7096m  684.8722m 
  674.69322m    6.7219m  684.8468m 
  674.79322m    6.7341m  684.8213m 
  674.89322m    6.7464m  684.7957m 
  674.99322m    6.7587m  684.7701m 
  675.09322m    6.7710m  684.7445m 
  675.19322m    6.7833m  684.7189m 
  675.29322m    6.7956m  684.6932m 
  675.39322m    6.8080m  684.6674m 
  675.49322m    6.8204m  684.6417m 
  675.59322m    6.8328m  684.6159m 
  675.69322m    6.8452m  684.5901m 
  675.79322m    6.8576m  684.5642m 
  675.89322m    6.8701m  684.5383m 
  675.99322m    6.8826m  684.5124m 
  676.09322m    6.8950m  684.4864m 
  676.19322m    6.9076m  684.4605m 
  676.29322m    6.9201m  684.4344m 
  676.39322m    6.9326m  684.4084m 
  676.49322m    6.9452m  684.3823m 
  676.59322m    6.9578m  684.3561m 
  676.69322m    6.9704m  684.3300m 
  676.79322m    6.9830m  684.3038m 
  676.89322m    6.9956m  684.2775m 
  676.99322m    7.0083m  684.2513m 
  677.09322m    7.0210m  684.2249m 
  677.19322m    7.0337m  684.1986m 
  677.29322m    7.0464m  684.1722m 
  677.39322m    7.0591m  684.1458m 
  677.49322m    7.0719m  684.1194m 
  677.59322m    7.0846m  684.0929m 
  677.69322m    7.0974m  684.0664m 
  677.79322m    7.1102m  684.0398m 
  677.89322m    7.1231m  684.0133m 
  677.99322m    7.1359m  683.9866m 
  678.09322m    7.1488m  683.9600m 
  678.19322m    7.1616m  683.9333m 
  678.29322m    7.1745m  683.9066m 
  678.39322m    7.1875m  683.8798m 
  678.49322m    7.2004m  683.8530m 
  678.59322m    7.2134m  683.8262m 
  678.69322m    7.2263m  683.7994m 
  678.79322m    7.2393m  683.7725m 
  678.89322m    7.2523m  683.7455m 
  678.99322m    7.2654m  683.7186m 
  679.09322m    7.2784m  683.6916m 
  679.19322m    7.2915m  683.6645m 
  679.29322m    7.3046m  683.6375m 
  679.39322m    7.3177m  683.6104m 
  679.49322m    7.3308m  683.5832m 
  679.59322m    7.3440m  683.5561m 
  679.69322m    7.3571m  683.5288m 
  679.79322m    7.3703m  683.5016m 
  679.89322m    7.3835m  683.4743m 
  679.99322m    7.3967m  683.4470m 
  680.09322m    7.4100m  683.4197m 
  680.19322m    7.4232m  683.3923m 
  680.29322m    7.4365m  683.3649m 
  680.39322m    7.4498m  683.3374m 
  680.49322m    7.4631m  683.3099m 
  680.59322m    7.4765m  683.2824m 
  680.69322m    7.4898m  683.2548m 
  680.79322m    7.5032m  683.2272m 
  680.89322m    7.5166m  683.1996m 
  680.99322m    7.5300m  683.1720m 
  681.09322m    7.5434m  683.1443m 
  681.19322m    7.5569m  683.1165m 
  681.29322m    7.5704m  683.0888m 
  681.39322m    7.5839m  683.0609m 
  681.49322m    7.5974m  683.0331m 
  681.59322m    7.6109m  683.0052m 
  681.69322m    7.6244m  682.9773m 
  681.79322m    7.6380m  682.9494m 
  681.89322m    7.6516m  682.9214m 
  681.99322m    7.6652m  682.8934m 
  682.09322m    7.6788m  682.8653m 
  682.19322m    7.6925m  682.8373m 
  682.29322m    7.7061m  682.8091m 
  682.39322m    7.7198m  682.7810m 
  682.49322m    7.7335m  682.7528m 
  682.59322m    7.7472m  682.7246m 
  682.69322m    7.7610m  682.6963m 
  682.79322m    7.7747m  682.6680m 
  682.89322m    7.7885m  682.6397m 
  682.99322m    7.8023m  682.6113m 
  683.09322m    7.8161m  682.5829m 
  683.19322m    7.8299m  682.5545m 
  683.29322m    7.8438m  682.5260m 
  683.39322m    7.8577m  682.4975m 
  683.49322m    7.8716m  682.4689m 
  683.59322m    7.8855m  682.4403m 
  683.69322m    7.8994m  682.4117m 
  683.79322m    7.9134m  682.3831m 
  683.89322m    7.9273m  682.3544m 
  683.99322m    7.9413m  682.3257m 
  684.09322m    7.9553m  682.2969m 
  684.19322m    7.9694m  682.2681m 
  684.29322m    7.9834m  682.2393m 
  684.39322m    7.9975m  682.2104m 
  684.49322m    8.0116m  682.1815m 
  684.59322m    8.0257m  682.1526m 
  684.69322m    8.0398m  682.1236m 
  684.79322m    8.0539m  682.0946m 
  684.89322m    8.0681m  682.0656m 
  684.99322m    8.0823m  682.0365m 
  685.09322m    8.0965m  682.0074m 
  685.19322m    8.1107m  681.9782m 
  685.29322m    8.1250m  681.9491m 
  685.39322m    8.1392m  681.9198m 
  685.49322m    8.1535m  681.8906m 
  685.59322m    8.1678m  681.8613m 
  685.69322m    8.1821m  681.8320m 
  685.79322m    8.1965m  681.8026m 
  685.89322m    8.2108m  681.7732m 
  685.99322m    8.2252m  681.7438m 
  686.09322m    8.2396m  681.7143m 
  686.19322m    8.2540m  681.6848m 
  686.29322m    8.2685m  681.6553m 
  686.39322m    8.2829m  681.6257m 
  686.49322m    8.2974m  681.5961m 
  686.59322m    8.3119m  681.5664m 
  686.69322m    8.3264m  681.5368m 
  686.79322m    8.3409m  681.5070m 
  686.89322m    8.3555m  681.4773m 
  686.99322m    8.3701m  681.4475m 
  687.09322m    8.3847m  681.4177m 
  687.19322m    8.3993m  681.3878m 
  687.29322m    8.4139m  681.3579m 
  687.39322m    8.4286m  681.3280m 
  687.49322m    8.4432m  681.2980m 
  687.59322m    8.4579m  681.2680m 
  687.69322m    8.4726m  681.2380m 
  687.79322m    8.4874m  681.2079m 
  687.89322m    8.5021m  681.1778m 
  687.99322m    8.5169m  681.1476m 
  688.09322m    8.5317m  681.1175m 
  688.19322m    8.5465m  681.0872m 
  688.29322m    8.5613m  681.0570m 
  688.39322m    8.5762m  681.0267m 
  688.49322m    8.5911m  680.9964m 
  688.59322m    8.6060m  680.9660m 
  688.69322m    8.6209m  680.9356m 
  688.79322m    8.6358m  680.9052m 
  688.89322m    8.6507m  680.8747m 
  688.99322m    8.6657m  680.8442m 
  689.09322m    8.6807m  680.8137m 
  689.19322m    8.6957m  680.7831m 
  689.29322m    8.7107m  680.7525m 
  689.39322m    8.7258m  680.7218m 
  689.49322m    8.7409m  680.6911m 
  689.59322m    8.7559m  680.6604m 
  689.69322m    8.7711m  680.6297m 
  689.79322m    8.7862m  680.5989m 
  689.89322m    8.8013m  680.5680m 
  689.99322m    8.8165m  680.5372m 
  690.09322m    8.8317m  680.5063m 
  690.19322m    8.8469m  680.4753m 
  690.29322m    8.8621m  680.4444m 
  690.39322m    8.8774m  680.4134m 
  690.49322m    8.8926m  680.3823m 
  690.59322m    8.9079m  680.3512m 
  690.69322m    8.9232m  680.3201m 
  690.79322m    8.9385m  680.2890m 
  690.89322m    8.9539m  680.2578m 
  690.99322m    8.9693m  680.2265m 
  691.09322m    8.9846m  680.1953m 
  691.19322m    9.0001m  680.1640m 
  691.29322m    9.0155m  680.1327m 
  691.39322m    9.0309m  680.1013m 
  691.49322m    9.0464m  680.0699m 
  691.59322m    9.0619m  680.0384m 
  691.69322m    9.0774m  680.0070m 
  691.79322m    9.0929m  679.9755m 
  691.89322m    9.1085m  679.9439m 
  691.99322m    9.1240m  679.9123m 
  692.09322m    9.1396m  679.8807m 
  692.19322m    9.1552m  679.8491m 
  692.29322m    9.1708m  679.8174m 
  692.39322m    9.1865m  679.7856m 
  692.49322m    9.2021m  679.7539m 
  692.59322m    9.2178m  679.7221m 
  692.69322m    9.2335m  679.6902m 
  692.79322m    9.2493m  679.6584m 
  692.89322m    9.2650m  679.6265m 
  692.99322m    9.2808m  679.5945m 
  693.09322m    9.2966m  679.5625m 
  693.19322m    9.3124m  679.5305m 
  693.29322m    9.3282m  679.4985m 
  693.39322m    9.3440m  679.4664m 
  693.49322m    9.3599m  679.4342m 
  693.59322m    9.3758m  679.4021m 
  693.69322m    9.3917m  679.3699m 
  693.79322m    9.4076m  679.3377m 
  693.89322m    9.4236m  679.3054m 
  693.99322m    9.4395m  679.2731m 
  694.09322m    9.4555m  679.2407m 
  694.19322m    9.4715m  679.2084m 
  694.29322m    9.4875m  679.1760m 
  694.39322m    9.5036m  679.1435m 
  694.49322m    9.5196m  679.1110m 
  694.59322m    9.5357m  679.0785m 
  694.69322m    9.5518m  679.0459m 
  694.79322m    9.5680m  679.0133m 
  694.89322m    9.5841m  678.9807m 
  694.99322m    9.6003m  678.9480m 
  695.09322m    9.6165m  678.9153m 
  695.19322m    9.6327m  678.8826m 
  695.29322m    9.6489m  678.8498m 
  695.39322m    9.6651m  678.8170m 
  695.49322m    9.6814m  678.7842m 
  695.59322m    9.6977m  678.7513m 
  695.69322m    9.7140m  678.7184m 
  695.79322m    9.7303m  678.6854m 
  695.89322m    9.7467m  678.6524m 
  695.99322m    9.7630m  678.6194m 
  696.09322m    9.7794m  678.5863m 
  696.19322m    9.7958m  678.5532m 
  696.29322m    9.8123m  678.5201m 
  696.39322m    9.8287m  678.4869m 
  696.49322m    9.8452m  678.4537m 
  696.59322m    9.8617m  678.4205m 
  696.69322m    9.8782m  678.3872m 
  696.79322m    9.8947m  678.3539m 
  696.89322m    9.9112m  678.3205m 
  696.99322m    9.9278m  678.2871m 
  697.09322m    9.9444m  678.2537m 
  697.19322m    9.9610m  678.2203m 
  697.29322m    9.9776m  678.1868m 
  697.39322m    9.9943m  678.1532m 
  697.49322m   10.0110m  678.1197m 
  697.59322m   10.0276m  678.0860m 
  697.69322m   10.0444m  678.0524m 
  697.79322m   10.0611m  678.0187m 
  697.89322m   10.0778m  677.9850m 
  697.99322m   10.0946m  677.9513m 
  698.09322m   10.1114m  677.9175m 
  698.19322m   10.1282m  677.8837m 
  698.29322m   10.1450m  677.8498m 
  698.39322m   10.1619m  677.8159m 
  698.49322m   10.1788m  677.7820m 
  698.59322m   10.1956m  677.7480m 
  698.69322m   10.2126m  677.7140m 
  698.79322m   10.2295m  677.6800m 
  698.89322m   10.2464m  677.6459m 
  698.99322m   10.2634m  677.6118m 
  699.09322m   10.2804m  677.5776m 
  699.19322m   10.2974m  677.5434m 
  699.29322m   10.3144m  677.5092m 
  699.39322m   10.3315m  677.4750m 
  699.49322m   10.3486m  677.4407m 
  699.59322m   10.3657m  677.4064m 
  699.69322m   10.3828m  677.3720m 
  699.79322m   10.3999m  677.3376m 
  699.89322m   10.4171m  677.3032m 
  699.99322m   10.4342m  677.2687m 
  700.09322m   10.4514m  677.2342m 
  700.19322m   10.4686m  677.1996m 
  700.29322m   10.4859m  677.1650m 
  700.39322m   10.5031m  677.1304m 
  700.49322m   10.5204m  677.0958m 
  700.59322m   10.5377m  677.0611m 
  700.69322m   10.5550m  677.0264m 
  700.79322m   10.5723m  676.9916m 
  700.89322m   10.5897m  676.9568m 
  700.99322m   10.6071m  676.9220m 
  701.09322m   10.6245m  676.8871m 
  701.19322m   10.6419m  676.8522m 
  701.29322m   10.6593m  676.8173m 
  701.39322m   10.6768m  676.7823m 
  701.49322m   10.6943m  676.7473m 
  701.59322m   10.7118m  676.7122m 
  701.69322m   10.7293m  676.6771m 
  701.79322m   10.7468m  676.6420m 
  701.89322m   10.7644m  676.6068m 
  701.99322m   10.7819m  676.5717m 
  702.09322m   10.7995m  676.5364m 
  702.19322m   10.8172m  676.5012m 
  702.29322m   10.8348m  676.4659m 
  702.39322m   10.8525m  676.4305m 
  702.49322m   10.8701m  676.3951m 
  702.59322m   10.8878m  676.3597m 
  702.69322m   10.9055m  676.3243m 
  702.79322m   10.9233m  676.2888m 
  702.89322m   10.9410m  676.2533m 
  702.99322m   10.9588m  676.2177m 
  703.09322m   10.9766m  676.1821m 
  703.19322m   10.9944m  676.1465m 
  703.29322m   11.0123m  676.1108m 
  703.39322m   11.0301m  676.0752m 
  703.49322m   11.0480m  676.0394m 
  703.59322m   11.0659m  676.0036m 
  703.69322m   11.0838m  675.9678m 
  703.79322m   11.1018m  675.9320m 
  703.89322m   11.1198m  675.8961m 
  703.99322m   11.1377m  675.8602m 
  704.09322m   11.1557m  675.8243m 
  704.19322m   11.1738m  675.7883m 
  704.29322m   11.1918m  675.7522m 
  704.39322m   11.2099m  675.7162m 
  704.49322m   11.2279m  675.6801m 
  704.59322m   11.2460m  675.6440m 
  704.69322m   11.2642m  675.6078m 
  704.79322m   11.2823m  675.5716m 
  704.89322m   11.3005m  675.5354m 
  704.99322m   11.3187m  675.4991m 
  705.09322m   11.3369m  675.4628m 
  705.19322m   11.3551m  675.4264m 
  705.29322m   11.3733m  675.3900m 
  705.39322m   11.3916m  675.3536m 
  705.49322m   11.4099m  675.3172m 
  705.59322m   11.4282m  675.2807m 
  705.69322m   11.4465m  675.2442m 
  705.79322m   11.4649m  675.2076m 
  705.89322m   11.4832m  675.1710m 
  705.99322m   11.5016m  675.1344m 
  706.09322m   11.5200m  675.0977m 
  706.19322m   11.5384m  675.0610m 
  706.29322m   11.5569m  675.0243m 
  706.39322m   11.5753m  674.9875m 
  706.49322m   11.5938m  674.9507m 
  706.59322m   11.6123m  674.9138m 
  706.69322m   11.6309m  674.8769m 
  706.79322m   11.6494m  674.8400m 
  706.89322m   11.6680m  674.8031m 
  706.99322m   11.6866m  674.7661m 
  707.09322m   11.7052m  674.7290m 
y
1****** HSPICE -- Q-2020.03-SP2-2 linux64 (Nov  1 2020) ******                  
 ******  
 .title ex1_1

 ****** operating point information tnom=  25.000 temp=  25.000 ******
 ****** operating point status is all       simulation time is     0.     
    node    =voltage      node    =voltage      node    =voltage

 +0:bl      = 700.0000m 0:blb     = 700.0000m 0:gl      = 372.9743m
 +0:gr      = 372.9743m 0:q       = 186.4871m 0:qb      = 186.4871m
 +0:u       =   0.      0:v1      = 263.7326m 0:v2      = 263.7326m
 +0:vdd     = 700.0000m 0:wl      =   0.      0:x       = 671.3248m


 **** voltage sources

 subckt                                   
 element  0:vdd      0:vu       0:vwl     
  volts    700.0000m    0.         0.     
  current   -1.0091u    0.       265.1779f
  power    706.3955n    0.         0.     

     total voltage source power dissipation=  706.3955n       watts



 **** voltage-controlled voltage sources


 subckt                                              
 element  0:eli      0:eri      0:ev1      0:ev2     
  volts    186.4871m  186.4871m  263.7326m  263.7326m
  current   -3.4602f   -3.4602f    0.         0.     





 **** mosfets


 subckt                                                                    
 element  0:mp_pu1   0:mp_pu2   0:mn_pd1   0:mn_pd2   0:mn_ax1   0:mn_ax2  
 model    0:pmos_sra 0:pmos_sra 0:nmos_sra 0:nmos_sra 0:nmos_sra 0:nmos_sra
 region   Subth      Subth      Subth      Subth      Cutoff     Cutoff    
  id      -504.5682n -504.5682n  504.5682n  504.5682n  973.7259a  973.7259a
  ibs        0.         0.         0.         0.         0.         0.     
  ibd        0.         0.         0.         0.         0.         0.     
  vgs     -327.0257m -327.0257m  372.9743m  372.9743m -186.4871m -186.4871m
  vds     -513.5129m -513.5129m  186.4871m  186.4871m  513.5129m  513.5129m
  vbs        0.         0.         0.         0.       484.8377m  484.8377m
  vth     -331.5878m -331.5878m  409.4770m  409.4770m  407.6919m  407.6919m
  vdsat    -95.3103m  -95.3103m   79.6537m   79.6537m   70.6690m   70.6690m
  vod        4.5620m    4.5620m  -36.5027m  -36.5027m -594.1791m -594.1791m
  beta       1.6413m    1.6413m    2.1736m    2.1736m    2.1736m    2.1736m
  gam eff    0.         0.         0.         0.         0.         0.     
  gm        13.1336u   13.1336u   15.4019u   15.4019u    1.2409a    1.2409a
  gds      286.6448n  286.6448n  361.2807n  361.2807n  170.0186a  170.0186a
  gmb        4.8038p    4.8038p    5.1500p    5.1500p  1.775e-20  1.775e-20
  cdtot     10.1635a   10.1635a   10.2536a   10.2536a   10.2225a   10.2225a
  cgtot     31.1248a   31.1248a   26.6601a   26.6601a   20.4450a   20.4450a
  cstot     17.2245a   17.2245a   14.3293a   14.3293a   10.2225a   10.2225a
  cbtot      0.         0.         0.         0.         0.         0.     
  cgs       21.0788a   21.0788a   16.4052a   16.4052a   10.2225a   10.2225a
  cgd       10.0460a   10.0460a   10.2549a   10.2549a   10.2225a   10.2225a




          ***** job concluded
 ******  
 .title ex1_1

 ****** job statistics summary tnom=  25.000 temp=  25.000 ******
  
 ******  Machine Information  ******
 CPU:
 model name	: AMD EPYC 7713 64-Core Processor
 cpu MHz	: 2000.000
  
 OS:
 Linux version 3.10.0-1160.88.1.el7.x86_64 (mockbuild@kbuilder.bsys.centos.org) (gcc version 4.8.5 20150623 (Red Hat 4.8.5-44) (GCC) ) #1 SMP Tue Mar 7 15:41:52 UTC 2023


  ******  HSPICE Threads Information  ******

  Command Line Threads Count :     1
  Available CPU Count        :   256
  Actual Threads Count       :     1


  ******  Circuit Statistics  ******
  # nodes       =      13 # elements   =      13
  # resistors   =       0 # capacitors =       0 # inductors   =       0
  # mutual_inds =       0 # vccs       =       0 # vcvs        =       4
  # cccs        =       0 # ccvs       =       0 # volt_srcs   =       3
  # curr_srcs   =       0 # diodes     =       0 # bjts        =       0
  # jfets       =       0 # mosfets    =       6 # U elements  =       0
  # T elements  =       0 # W elements =       0 # B elements  =       0
  # S elements  =       0 # P elements =       0 # va device   =       0
  # vector_srcs =       0 # N elements =       0


  ******  Runtime Statistics (seconds)  ******

  analysis           time    # points   tot. iter  conv.iter
  op point           0.01           1           7
  dc sweep           1.19       14143       43160
  readin             0.01
  errchk             0.00
  setup              0.00
  output             0.00


           peak memory used        400.89 megabytes
           total cpu time            1.27 seconds
           total elapsed time        1.67 seconds
           job started at     21:15:39 03/18/2025
           job ended   at     21:15:41 03/18/2025
           job total runtime         1.67 seconds


 lic: Release hspice token(s) 
 lic: total license checkout elapse time:        0.39(s)
