 ****** HSPICE -- Q-2020.03-SP2-2 linux64 (Nov  1 2020) ******                  
  Copyright (c) 1986 - 2025 by Synopsys, Inc. All Rights Reserved.              
  This software and the associated documentation are proprietary
  to Synopsys, Inc. This software may only be used in accordance
  with the terms and conditions of a written license agreement with
  Synopsys, Inc. All other use, reproduction, or distribution of
  this software is strictly prohibited.
  Input File: ex1_1.sp                                                          
  Command line options: /RAID2/cad/synopsys/hspice/2020.03-sp2-2/hspice/linux64/hspice -i ex1_1.sp -o ex1_1.lis
  Start time: Tue Mar 18 22:52:29 2025
 lic:  
 lic: FLEXlm: SDK_12.6 
 lic: USER:   es25MCS042           HOSTNAME: ee28 
 lic: HOSTID: "d85ed3efc19a"       PID:      48025 
 lic: Using FLEXlm license file: 
 lic: 26585@lshc 
 lic: Checkout 1 hspice 
 lic: License/Maintenance for hspice will expire on 14-may-2025/2024.09 
 lic: 212(in_use)/1100(total) FLOATING license(s) on SERVER 26585@lshc 
 lic:   
  
      
 *****************************************************************
 ******  option summary
 ******
 runlvl  = 3         bypass  = 2.0000    

 **info** rebuilding matrix with pivot option


 **info** rebuilding matrix without pivot option

 convergence problems in dc sweep curves at -0.49187    
  resimulating with dc convergence controls

 convergence problems in dc sweep curves at -0.48877    
  resimulating with dc convergence controls

 convergence problems in dc sweep curves at -0.48147    
  resimulating with dc convergence controls

 convergence problems in dc sweep curves at -0.47437    
  resimulating with dc convergence controls

 convergence problems in dc sweep curves at -0.47227    
  resimulating with dc convergence controls

 convergence problems in dc sweep curves at -0.46237    
  resimulating with dc convergence controls

 convergence problems in dc sweep curves at -0.45537    
  resimulating with dc convergence controls

 convergence problems in dc sweep curves at -0.45307    
  resimulating with dc convergence controls

 convergence problems in dc sweep curves at -0.45077    
  resimulating with dc convergence controls

 convergence problems in dc sweep curves at -0.44787    
  resimulating with dc convergence controls

 convergence problems in dc sweep curves at -0.44527    
  resimulating with dc convergence controls

 convergence problems in dc sweep curves at -0.44327    
  resimulating with dc convergence controls

 convergence problems in dc sweep curves at -0.44117    
  resimulating with dc convergence controls

 convergence problems in dc sweep curves at -0.43597    
  resimulating with dc convergence controls

 convergence problems in dc sweep curves at -0.42807    
  resimulating with dc convergence controls

 convergence problems in dc sweep curves at -0.42707    
  resimulating with dc convergence controls

 convergence problems in dc sweep curves at -0.42497    
  resimulating with dc convergence controls

 convergence problems in dc sweep curves at -0.42367    
  resimulating with dc convergence controls

 convergence problems in dc sweep curves at -0.42107    
  resimulating with dc convergence controls

 convergence problems in dc sweep curves at -0.40387    
  resimulating with dc convergence controls

 convergence problems in dc sweep curves at -0.39787    
  resimulating with dc convergence controls

 convergence problems in dc sweep curves at -0.39487    
  resimulating with dc convergence controls

 convergence problems in dc sweep curves at -0.38377    
  resimulating with dc convergence controls

 convergence problems in dc sweep curves at -0.38277    
  resimulating with dc convergence controls

 convergence problems in dc sweep curves at -0.38247    
  resimulating with dc convergence controls

 convergence problems in dc sweep curves at -0.38137    
  resimulating with dc convergence controls

 convergence problems in dc sweep curves at -0.35817    
  resimulating with dc convergence controls

 convergence problems in dc sweep curves at -0.35147    
  resimulating with dc convergence controls

 convergence problems in dc sweep curves at -0.34647    
  resimulating with dc convergence controls

 convergence problems in dc sweep curves at -0.34117    
  resimulating with dc convergence controls

 convergence problems in dc sweep curves at -0.32857    
  resimulating with dc convergence controls

 convergence problems in dc sweep curves at -0.32457    
  resimulating with dc convergence controls

 convergence problems in dc sweep curves at -0.32427    
  resimulating with dc convergence controls

 convergence problems in dc sweep curves at -0.32127    
  resimulating with dc convergence controls

 convergence problems in dc sweep curves at -0.31517    
  resimulating with dc convergence controls

 convergence problems in dc sweep curves at -0.29707    
  resimulating with dc convergence controls

 convergence problems in dc sweep curves at -0.29097    
  resimulating with dc convergence controls

 convergence problems in dc sweep curves at -0.28717    
  resimulating with dc convergence controls

 convergence problems in dc sweep curves at -0.27987    
  resimulating with dc convergence controls

 convergence problems in dc sweep curves at -0.27537    
  resimulating with dc convergence controls

 convergence problems in dc sweep curves at -0.27287    
  resimulating with dc convergence controls

 convergence problems in dc sweep curves at -0.26787    
  resimulating with dc convergence controls

 convergence problems in dc sweep curves at -0.26677    
  resimulating with dc convergence controls

 convergence problems in dc sweep curves at -0.26477    
  resimulating with dc convergence controls

 convergence problems in dc sweep curves at -0.26177    
  resimulating with dc convergence controls

 convergence problems in dc sweep curves at -0.26077    
  resimulating with dc convergence controls

 convergence problems in dc sweep curves at -0.25977    
  resimulating with dc convergence controls

 convergence problems in dc sweep curves at -0.25897    
  resimulating with dc convergence controls

 convergence problems in dc sweep curves at -0.25247    
  resimulating with dc convergence controls

 convergence problems in dc sweep curves at -0.24967    
  resimulating with dc convergence controls

 convergence problems in dc sweep curves at -0.24937    
  resimulating with dc convergence controls

 convergence problems in dc sweep curves at -0.24057    
  resimulating with dc convergence controls

 convergence problems in dc sweep curves at -0.23947    
  resimulating with dc convergence controls

 convergence problems in dc sweep curves at -0.22557    
  resimulating with dc convergence controls

 convergence problems in dc sweep curves at -0.21377    
  resimulating with dc convergence controls

 convergence problems in dc sweep curves at -0.20527    
  resimulating with dc convergence controls

 convergence problems in dc sweep curves at -0.20517    
  resimulating with dc convergence controls

 convergence problems in dc sweep curves at -0.20247    
  resimulating with dc convergence controls

 convergence problems in dc sweep curves at -0.18727    
  resimulating with dc convergence controls

 convergence problems in dc sweep curves at -0.17087    
  resimulating with dc convergence controls

 convergence problems in dc sweep curves at -0.16667    
  resimulating with dc convergence controls

 convergence problems in dc sweep curves at -0.15657    
  resimulating with dc convergence controls

 convergence problems in dc sweep curves at -0.14057    
  resimulating with dc convergence controls

 convergence problems in dc sweep curves at -0.12547    
  resimulating with dc convergence controls

 convergence problems in dc sweep curves at -0.12127    
  resimulating with dc convergence controls

 convergence problems in dc sweep curves at -0.11027    
  resimulating with dc convergence controls

 convergence problems in dc sweep curves at -0.10927    
  resimulating with dc convergence controls

 convergence problems in dc sweep curves at -9.56747E-02
  resimulating with dc convergence controls

 convergence problems in dc sweep curves at -9.36747E-02
  resimulating with dc convergence controls

 convergence problems in dc sweep curves at -8.51747E-02
  resimulating with dc convergence controls

 convergence problems in dc sweep curves at -7.70747E-02
  resimulating with dc convergence controls

 convergence problems in dc sweep curves at -7.65747E-02
  resimulating with dc convergence controls

 convergence problems in dc sweep curves at -7.43747E-02
  resimulating with dc convergence controls

 convergence problems in dc sweep curves at -7.35747E-02
  resimulating with dc convergence controls

 convergence problems in dc sweep curves at -6.39747E-02
  resimulating with dc convergence controls

 convergence problems in dc sweep curves at -5.90747E-02
  resimulating with dc convergence controls

 convergence problems in dc sweep curves at -5.22747E-02
  resimulating with dc convergence controls

 convergence problems in dc sweep curves at -4.72747E-02
  resimulating with dc convergence controls

 convergence problems in dc sweep curves at -4.65747E-02
  resimulating with dc convergence controls

 convergence problems in dc sweep curves at -3.67747E-02
  resimulating with dc convergence controls

 convergence problems in dc sweep curves at -3.64747E-02
  resimulating with dc convergence controls

 convergence problems in dc sweep curves at -2.94747E-02
  resimulating with dc convergence controls

 convergence problems in dc sweep curves at -2.71747E-02
  resimulating with dc convergence controls

 convergence problems in dc sweep curves at -2.49747E-02
  resimulating with dc convergence controls

 convergence problems in dc sweep curves at -2.17747E-02
  resimulating with dc convergence controls

 convergence problems in dc sweep curves at -2.14747E-02
  resimulating with dc convergence controls

 convergence problems in dc sweep curves at -1.68747E-02
  resimulating with dc convergence controls

 convergence problems in dc sweep curves at -1.37747E-02
  resimulating with dc convergence controls

 convergence problems in dc sweep curves at -1.25747E-02
  resimulating with dc convergence controls

 convergence problems in dc sweep curves at -1.06747E-02
  resimulating with dc convergence controls

 convergence problems in dc sweep curves at -1.04747E-02
  resimulating with dc convergence controls

 convergence problems in dc sweep curves at -1.03747E-02
  resimulating with dc convergence controls

 convergence problems in dc sweep curves at -8.37475E-03
  resimulating with dc convergence controls

 convergence problems in dc sweep curves at -4.77475E-03
  resimulating with dc convergence controls

 convergence problems in dc sweep curves at -2.27475E-03
  resimulating with dc convergence controls

 convergence problems in dc sweep curves at  2.82525E-03
  resimulating with dc convergence controls

 convergence problems in dc sweep curves at  3.72525E-03
  resimulating with dc convergence controls

 convergence problems in dc sweep curves at  4.82525E-03
  resimulating with dc convergence controls

 convergence problems in dc sweep curves at  8.92525E-03
  resimulating with dc convergence controls

 convergence problems in dc sweep curves at  1.12253E-02
  resimulating with dc convergence controls

 convergence problems in dc sweep curves at  1.13253E-02
  resimulating with dc convergence controls

 convergence problems in dc sweep curves at  2.52253E-02
  resimulating with dc convergence controls

 convergence problems in dc sweep curves at  2.84253E-02
  resimulating with dc convergence controls

 convergence problems in dc sweep curves at  2.94253E-02
  resimulating with dc convergence controls

 convergence problems in dc sweep curves at  3.10253E-02
  resimulating with dc convergence controls

 convergence problems in dc sweep curves at  3.15253E-02
  resimulating with dc convergence controls

 convergence problems in dc sweep curves at  3.29253E-02
  resimulating with dc convergence controls

 convergence problems in dc sweep curves at  3.49253E-02
  resimulating with dc convergence controls

 convergence problems in dc sweep curves at  3.54253E-02
  resimulating with dc convergence controls

 convergence problems in dc sweep curves at  3.91253E-02
  resimulating with dc convergence controls

 convergence problems in dc sweep curves at  4.34253E-02
  resimulating with dc convergence controls

 convergence problems in dc sweep curves at  4.87253E-02
  resimulating with dc convergence controls

 convergence problems in dc sweep curves at  5.93253E-02
  resimulating with dc convergence controls

 convergence problems in dc sweep curves at  6.12253E-02
  resimulating with dc convergence controls

 convergence problems in dc sweep curves at  6.47253E-02
  resimulating with dc convergence controls

 convergence problems in dc sweep curves at  7.05253E-02
  resimulating with dc convergence controls

 convergence problems in dc sweep curves at  8.29253E-02
  resimulating with dc convergence controls

 convergence problems in dc sweep curves at  8.84253E-02
  resimulating with dc convergence controls

 convergence problems in dc sweep curves at  9.20253E-02
  resimulating with dc convergence controls

 convergence problems in dc sweep curves at  9.65253E-02
  resimulating with dc convergence controls

 convergence problems in dc sweep curves at  0.10893    
  resimulating with dc convergence controls

 convergence problems in dc sweep curves at  0.11033    
  resimulating with dc convergence controls

 convergence problems in dc sweep curves at  0.12003    
  resimulating with dc convergence controls

 convergence problems in dc sweep curves at  0.14593    
  resimulating with dc convergence controls

 convergence problems in dc sweep curves at  0.15143    
  resimulating with dc convergence controls

 convergence problems in dc sweep curves at  0.15843    
  resimulating with dc convergence controls

 convergence problems in dc sweep curves at  0.15853    
  resimulating with dc convergence controls

 convergence problems in dc sweep curves at  0.16253    
  resimulating with dc convergence controls

 convergence problems in dc sweep curves at  0.17563    
  resimulating with dc convergence controls

 convergence problems in dc sweep curves at  0.17593    
  resimulating with dc convergence controls

 convergence problems in dc sweep curves at  0.20963    
  resimulating with dc convergence controls

 convergence problems in dc sweep curves at  0.21043    
  resimulating with dc convergence controls

 convergence problems in dc sweep curves at  0.21663    
  resimulating with dc convergence controls

 convergence problems in dc sweep curves at  0.21903    
  resimulating with dc convergence controls

 convergence problems in dc sweep curves at  0.22073    
  resimulating with dc convergence controls

 convergence problems in dc sweep curves at  0.22433    
  resimulating with dc convergence controls

 convergence problems in dc sweep curves at  0.23273    
  resimulating with dc convergence controls

 convergence problems in dc sweep curves at  0.23853    
  resimulating with dc convergence controls

 convergence problems in dc sweep curves at  0.27723    
  resimulating with dc convergence controls

 convergence problems in dc sweep curves at  0.27863    
  resimulating with dc convergence controls

 convergence problems in dc sweep curves at  0.31123    
  resimulating with dc convergence controls

 convergence problems in dc sweep curves at  0.32473    
  resimulating with dc convergence controls

 convergence problems in dc sweep curves at  0.36993    
  resimulating with dc convergence controls

 convergence problems in dc sweep curves at  0.37123    
  resimulating with dc convergence controls

 convergence problems in dc sweep curves at  0.39143    
  resimulating with dc convergence controls

 convergence problems in dc sweep curves at  0.39223    
  resimulating with dc convergence controls

 convergence problems in dc sweep curves at  0.43133    
  resimulating with dc convergence controls

 convergence problems in dc sweep curves at  0.44483    
  resimulating with dc convergence controls

 convergence problems in dc sweep curves at  0.46613    
  resimulating with dc convergence controls

 convergence problems in dc sweep curves at  0.46693    
  resimulating with dc convergence controls

 convergence problems in dc sweep curves at  0.47793    
  resimulating with dc convergence controls

 convergence problems in dc sweep curves at  0.48513    
  resimulating with dc convergence controls

 convergence problems in dc sweep curves at  0.49063    
  resimulating with dc convergence controls

 convergence problems in dc sweep curves at  0.49433    
  resimulating with dc convergence controls

 ******
 .title ex1_1

 ****** dc transfer curves tnom=  25.000 temp=  25.000 ******
x

 volt         voltage    voltage   
             q          qb         
 -494.97475m -700.0000m    0.      
 -494.87475m -699.8586m    0.      
 -494.77475m -699.7172m    0.      
 -494.67475m -699.5757m    0.      
 -494.57475m -699.4343m    0.      
 -494.47475m -699.2929m    0.      
 -494.37475m -699.1515m    0.      
 -494.27475m -699.0101m    0.      
 -494.17475m -698.8686m    0.      
 -494.07475m -698.7272m    0.      
 -493.97475m -698.5858m    0.      
 -493.87475m -698.4444m    0.      
 -493.77475m -698.3029m    0.      
 -493.67475m -790.9525m  -92.7909m 
 -493.57475m -790.8110m  -92.7909m 
 -493.47475m -790.6696m  -92.7909m 
 -493.37475m -790.5282m  -92.7909m 
 -493.27475m -790.3868m  -92.7909m 
 -493.17475m   -1.0860  -388.5781m 
 -493.07475m -597.2097m  100.1033m 
 -492.97475m -597.0683m  100.1033m 
 -492.87475m -596.9268m  100.1033m 
 -492.77475m -596.7854m  100.1033m 
 -492.67475m -485.6217m  211.1256m 
 -492.57475m -351.4603m  345.1456m 
 -492.47475m -351.3189m  345.1456m 
 -492.37475m -295.6663m  400.6567m 
 -492.27475m -295.5249m  400.6567m 
 -492.17475m -248.0017m  448.0385m 
 -492.07475m -208.6080m  487.2908m 
 -491.97475m -136.6966m  559.0608m 
 -491.87475m -695.6159m    0.      
 -491.77475m -695.4745m    0.      
 -491.67475m -496.2820m  199.0511m 
 -491.57475m -496.1405m  199.0511m 
 -491.47475m -495.9991m  199.0511m 
 -491.37475m -495.8577m  199.0511m 
 -491.27475m -495.7163m  199.0511m 
 -491.17475m -289.7891m  404.8369m 
 -491.07475m -289.6477m  404.8369m 
 -490.97475m -289.5062m  404.8369m 
 -490.87475m -289.3648m  404.8369m 
 -490.77475m -289.2234m  404.8369m 
 -490.67475m -458.9828m  234.9361m 
 -490.57475m -426.3195m  267.4580m 
 -490.47475m -426.1780m  267.4580m 
 -490.37475m -426.0366m  267.4580m 
 -490.27475m -425.8952m  267.4580m 
 -490.17475m -448.7472m  244.4645m 
 -490.07475m -448.6058m  244.4645m 
 -489.97475m -448.4644m  244.4645m 
 -489.87475m -448.3230m  244.4645m 
 -489.77475m -448.1816m  244.4645m 
 -489.67475m -568.5866m  123.9180m 
 -489.57475m -568.4452m  123.9180m 
 -489.47475m -568.3038m  123.9180m 
 -489.37475m -568.1624m  123.9180m 
 -489.27475m -568.0210m  123.9180m 
 -489.17475m -567.8795m  123.9180m 
 -489.07475m -567.7381m  123.9180m 
 -488.97475m -567.5967m  123.9180m 
 -488.87475m -567.4553m  123.9180m 
 -488.77475m -722.3548m  -31.1229m 
 -488.67475m -500.1687m  190.9217m 
 -488.57475m -444.5162m  246.4329m 
 -488.47475m -444.3747m  246.4329m 
 -488.37475m -444.2333m  246.4329m 
 -488.27475m -444.0919m  246.4329m 
 -488.17475m -422.9295m  267.4538m 
 -488.07475m -422.7881m  267.4538m 
 -487.97475m -422.6467m  267.4538m 
 -487.87475m -422.5053m  267.4538m 
 -487.77475m -422.3639m  267.4538m 
 -487.67475m -495.9650m  193.7113m 
 -487.57475m -503.9530m  185.5819m 
 -487.47475m -318.2213m  371.1721m 
 -487.37475m -318.0799m  371.1721m 
 -487.27475m -317.9384m  371.1721m 
 -487.17475m -317.7970m  371.1721m 
 -487.07475m -206.6333m  482.1944m 
 -486.97475m -206.4919m  482.1944m 
 -486.87475m -206.3504m  482.1944m 
 -486.77475m -206.2090m  482.1944m 
 -486.67475m -206.0676m  482.1944m 
 -486.57475m -225.5523m  462.5683m 
 -486.47475m -225.4109m  462.5683m 
 -486.37475m -225.2653m  462.5725m 
 -486.27475m -225.1239m  462.5725m 
 -486.17475m -224.9825m  462.5725m 
 -486.07475m -224.8410m  462.5725m 
 -485.97475m  -58.1662m  629.1059m 
 -485.87475m   69.2564m  756.3871m 
 -485.77475m -404.4195m  282.5697m 
 -485.67475m -404.2781m  282.5697m 
 -485.57475m -266.7536m  419.9528m 
 -485.47475m -266.6121m  419.9528m 
 -485.37475m -266.4707m  419.9528m 
 -485.27475m -266.3293m  419.9528m 
 -485.17475m -266.1879m  419.9528m 
 -485.07475m -266.0464m  419.9528m 
 -484.97475m -148.1481m  537.7098m 
 -484.87475m -148.0067m  537.7098m 
 -484.77475m -147.8653m  537.7098m 
 -484.67475m -147.7238m  537.7098m 
 -484.57475m -147.5824m  537.7098m 
 -484.47475m -147.4410m  537.7098m 
 -484.37475m -147.2996m  537.7098m 
 -484.27475m -147.1581m  537.7098m 
 -484.17475m -401.5790m  283.1475m 
 -484.07475m -239.6662m  444.9188m 
 -483.97475m -167.7548m  516.6888m 
 -483.87475m -214.9951m  469.3071m 
 -483.77475m -214.8537m  469.3071m 
 -483.67475m -214.7123m  469.3071m 
 -483.57475m -214.5709m  469.3071m 
 -483.47475m -214.4294m  469.3071m 
 -483.37475m -214.2880m  469.3071m 
 -483.27475m -214.1466m  469.3071m 
 -483.17475m -214.0052m  469.3071m 
 -483.07475m -166.4820m  516.6888m 
 -482.97475m -166.3406m  516.6888m 
 -482.87475m -166.1992m  516.6888m 
 -482.77475m -166.0578m  516.6888m 
 -482.67475m -165.9163m  516.6888m 
 -482.57475m -126.5226m  555.9411m 
 -482.47475m -126.3812m  555.9411m 
 -482.37475m -126.2398m  555.9411m 
 -482.27475m -165.3507m  516.6888m 
 -482.17475m -165.2092m  516.6888m 
 -482.07475m -165.0678m  516.6888m 
 -481.97475m -164.9264m  516.6888m 
 -481.87475m -347.5773m  333.8965m 
 -481.77475m -347.4358m  333.8965m 
 -481.67475m -291.7833m  389.4077m 
 -481.57475m -291.6419m  389.4077m 
 -481.47475m -791.9304m -111.0223m 
 -481.37475m -791.7890m -111.0223m 
 -481.27475m -791.6476m -111.0223m 
 -481.17475m -791.5062m -111.0223m 
 -481.07475m -363.5344m  316.8081m 
 -480.97475m -363.3929m  316.8081m 
 -480.87475m -363.2515m  316.8081m 
 -480.77475m -363.1101m  316.8081m 
 -480.67475m -362.9687m  316.8081m 
 -480.57475m -388.6103m  291.0250m 
 -480.47475m -388.4689m  291.0250m 
 -480.37475m -127.0305m  552.3219m 
 -480.27475m -221.6526m  457.5585m 
 -480.17475m -277.0223m  402.0473m 
 -480.07475m -260.6262m  418.3020m 
 -479.97475m -348.5137m  330.2731m 
 -479.87475m -348.3722m  330.2731m 
 -479.77475m -300.8491m  377.6549m 
 -479.67475m -300.7077m  377.6549m 
 -479.57475m -300.5662m  377.6549m 
 -479.47475m -300.4248m  377.6549m 
 -479.37475m -300.2834m  377.6549m 
 -479.27475m -300.1420m  377.6549m 
 -479.17475m -300.0006m  377.6549m 
 -479.07475m -255.8447m  421.6693m 
 -478.97475m -255.7033m  421.6693m 
 -478.87475m -255.5619m  421.6693m 
 -478.77475m -255.4205m  421.6693m 
 -478.67475m -255.2790m  421.6693m 
 -478.57475m -137.3807m  539.4262m 
 -478.47475m -137.2393m  539.4262m 
 -478.37475m -137.0978m  539.4262m 
 -478.27475m -136.9564m  539.4262m 
 -478.17475m -136.8150m  539.4262m 
 -478.07475m  496.9426m    1.1730  
 -477.97475m -259.8682m  416.0901m 
 -477.87475m -259.7268m  416.0901m 
 -477.77475m -259.5854m  416.0901m 
 -477.67475m -259.4440m  416.0901m 
 -477.57475m -220.0502m  455.3424m 
 -477.47475m -219.9088m  455.3424m 
 -477.37475m -303.0299m  372.0799m 
 -477.27475m -342.1366m  332.8318m 
 -477.17475m -341.9952m  332.8318m 
 -477.07475m -341.8538m  332.8318m 
 -476.97475m -341.7124m  332.8318m 
 -476.87475m -341.5709m  332.8318m 
 -476.77475m -341.4295m  332.8318m 
 -476.67475m -341.2881m  332.8318m 
 -476.57475m -615.3351m   58.6434m 
 -476.47475m -615.1937m   58.6434m 
 -476.37475m -615.0523m   58.6434m 
 -476.27475m -614.9109m   58.6434m 
 -476.17475m -614.7694m   58.6434m 
 -476.07475m -353.3311m  319.9403m 
 -475.97475m -353.1897m  319.9403m 
 -475.87475m -353.0483m  319.9403m 
 -475.77475m -352.9068m  319.9403m 
 -475.67475m -352.7654m  319.9403m 
 -475.57475m -343.0998m  329.4645m 
 -475.47475m -279.3136m  393.1092m 
 -475.37475m -145.1648m  527.1166m 
 -475.27475m -145.0234m  527.1166m 
 -475.17475m -144.8819m  527.1166m 
 -475.07475m  -82.4947m  589.3624m 
 -474.97475m  -82.3533m  589.3624m 
 -474.87475m  -82.2119m  589.3624m 
 -474.77475m  -82.0705m  589.3624m 
 -474.67475m  -81.9291m  589.3624m 
 -474.57475m  -81.7876m  589.3624m 
 -474.47475m -192.6685m  478.3401m 
 -474.37475m -450.7951m  220.0721m 
 -474.27475m -450.6537m  220.0721m 
 -474.17475m -450.5123m  220.0721m 
 -474.07475m -450.3709m  220.0721m 
 -473.97475m -450.2294m  220.0721m 
 -473.87475m -450.0880m  220.0721m 
 -473.77475m -449.9466m  220.0721m 
 -473.67475m -338.7829m  331.0944m 
 -473.57475m -338.6415m  331.0944m 
 -473.47475m -385.8818m  283.7126m 
 -473.37475m -385.7403m  283.7126m 
 -473.27475m -385.5989m  283.7126m 
 -473.17475m -385.4575m  283.7126m 
 -473.07475m -385.3161m  283.7126m 
 -472.97475m -400.0387m  268.8486m 
 -472.87475m -399.8973m  268.8486m 
 -472.77475m -399.7559m  268.8486m 
 -472.67475m -399.6144m  268.8486m 
 -472.57475m -399.4730m  268.8486m 
 -472.47475m -584.0964m   84.0838m 
 -472.37475m -671.9796m   -3.9409m 
 -472.27475m -412.4270m  255.4704m 
 -472.17475m -412.2855m  255.4704m 
 -472.07475m -412.1441m  255.4704m 
 -471.97475m -315.8444m  351.6286m 
 -471.87475m -315.7030m  351.6286m 
 -471.77475m -315.5616m  351.6286m 
 -471.67475m -315.4202m  351.6286m 
 -471.57475m -315.2788m  351.6286m 
 -471.47475m -298.8785m  367.8875m 
 -471.37475m -298.7371m  367.8875m 
 -471.27475m -298.5956m  367.8875m 
 -471.17475m -298.4542m  367.8875m 
 -471.07475m -384.9468m  281.2534m 
 -470.97475m -193.8837m  472.1752m 
 -470.87475m -193.7423m  472.1752m 
 -470.77475m -193.6009m  472.1752m 
 -470.67475m -193.4595m  472.1752m 
 -470.57475m -193.3180m  472.1752m 
 -470.47475m  -36.1674m  629.1844m 
 -470.37475m  -36.0259m  629.1844m 
 -470.27475m  -35.8845m  629.1844m 
 -470.17475m  -35.7431m  629.1844m 
 -470.07475m  -35.6017m  629.1844m 
 -469.97475m  -35.4603m  629.1844m 
 -469.87475m  -35.3188m  629.1844m 
 -469.77475m  -35.1774m  629.1844m 
 -469.67475m  -35.0360m  629.1844m 
 -469.57475m  -34.8946m  629.1844m 
 -469.47475m -145.7755m  518.1621m 
 -469.37475m -145.6340m  518.1621m 
 -469.27475m -145.4926m  518.1621m 
 -469.17475m -145.3512m  518.1621m 
 -469.07475m -145.2098m  518.1621m 
 -468.97475m -145.0683m  518.1621m 
 -468.87475m -273.6029m  389.4862m 
 -468.77475m -273.4614m  389.4862m 
 -468.67475m -273.3200m  389.4862m 
 -468.57475m -273.1786m  389.4862m 
 -468.47475m -273.0372m  389.4862m 
 -468.37475m -272.8957m  389.4862m 
 -468.27475m -383.7724m  278.4681m 
 -468.17475m -383.6310m  278.4681m 
 -468.07475m -383.4896m  278.4681m 
 -467.97475m -383.3482m  278.4681m 
 -467.87475m -383.2067m  278.4681m 
 -467.77475m -383.0653m  278.4681m 
 -467.67475m -382.9239m  278.4681m 
 -467.57475m -382.7825m  278.4681m 
 -467.47475m -366.3822m  294.7269m 
 -467.37475m -366.2408m  294.7269m 
 -467.27475m -366.0994m  294.7269m 
 -467.17475m -365.9580m  294.7269m 
 -467.07475m -365.8165m  294.7269m 
 -466.97475m -254.6528m  405.7492m 
 -466.87475m -261.2418m  399.0188m 
 -466.77475m -372.1227m  287.9965m 
 -466.67475m -371.9813m  287.9965m 
 -466.57475m -371.8399m  287.9965m 
 -466.47475m -371.6984m  287.9965m 
 -466.37475m -332.2963m  327.2572m 
 -466.27475m -332.1549m  327.2572m 
 -466.17475m -332.0135m  327.2572m 
 -466.07475m -331.8721m  327.2572m 
 -465.97475m -300.6078m  358.3801m 
 -465.87475m -300.4663m  358.3801m 
 -465.77475m -300.3249m  358.3801m 
 -465.67475m -300.1835m  358.3801m 
 -465.57475m -300.0421m  358.3801m 
 -465.47475m -417.6576m  240.6231m 
 -465.37475m -417.5162m  240.6231m 
 -465.27475m -417.3747m  240.6231m 
 -465.17475m -417.2333m  240.6231m 
 -465.07475m -417.0919m  240.6231m 
 -464.97475m -405.4537m  252.1199m 
 -464.87475m -405.3123m  252.1199m 
 -464.77475m -405.1709m  252.1199m 
 -464.67475m -405.0295m  252.1199m 
 -464.57475m -404.8881m  252.1199m 
 -464.47475m -411.4813m  245.3852m 
 -464.37475m -489.8445m  166.8806m 
 -464.27475m -489.7030m  166.8806m 
 -464.17475m -489.5616m  166.8806m 
 -464.07475m -489.4202m  166.8806m 
 -463.97475m -353.8682m  302.2912m 
 -463.87475m -369.9856m  286.0323m 
 -463.77475m -369.8442m  286.0323m 
 -463.67475m -258.6805m  397.0546m 
 -463.57475m -258.5391m  397.0546m 
 -463.47475m -258.3976m  397.0546m 
 -463.37475m -258.2562m  397.0546m 
 -463.27475m -258.1148m  397.0546m 
 -463.17475m -401.5134m  253.5146m 
 -463.07475m -401.3719m  253.5146m 
 -462.97475m -322.7259m  332.0193m 
 -462.87475m -322.5845m  332.0193m 
 -462.77475m -322.4431m  332.0193m 
 -462.67475m -322.3016m  332.0193m 
 -462.57475m -322.1602m  332.0193m 
 -462.47475m -322.0188m  332.0193m 
 -462.37475m -598.3855m   55.5112m 
 -462.27475m -598.2441m   55.5112m 
 -462.17475m -598.1026m   55.5112m 
 -462.07475m -597.9612m   55.5112m 
 -461.97475m -581.5610m   71.7700m 
 -461.87475m -581.4195m   71.7700m 
 -461.77475m -581.2781m   71.7700m 
 -461.67475m -581.1367m   71.7700m 
 -461.57475m -580.9953m   71.7700m 
 -461.47475m -580.8539m   71.7700m 
 -461.37475m -365.4025m  287.0800m 
 -461.27475m -175.7383m  476.6027m 
 -461.17475m -402.4036m  249.7960m 
 -461.07475m -402.2622m  249.7960m 
 -460.97475m -413.6175m  238.2993m 
 -460.87475m -413.4761m  238.2993m 
 -460.77475m -413.3346m  238.2993m 
 -460.67475m -413.1932m  238.2993m 
 -460.57475m -413.0518m  238.2993m 
 -460.47475m -412.9104m  238.2993m 
 -460.37475m -301.7467m  349.3216m 
 -460.27475m -301.6052m  349.3216m 
 -460.17475m -301.4638m  349.3216m 
 -460.07475m -301.3224m  349.3216m 
 -459.97475m -469.1092m  181.3933m 
 -459.87475m -382.3337m  268.0274m 
 -459.77475m -382.1923m  268.0274m 
 -459.67475m -382.0509m  268.0274m 
 -459.57475m -381.9095m  268.0274m 
 -459.47475m -381.7681m  268.0274m 
 -459.37475m -381.6266m  268.0274m 
 -459.27475m -381.4852m  268.0274m 
 -459.17475m -381.3438m  268.0274m 
 -459.07475m -381.2024m  268.0274m 
 -458.97475m -428.4427m  220.6456m 
 -458.87475m -428.3013m  220.6456m 
 -458.77475m -428.1598m  220.6456m 
 -458.67475m -428.0184m  220.6456m 
 -458.57475m -427.8770m  220.6456m 
 -458.47475m -427.7356m  220.6456m 
 -458.37475m -355.8242m  292.4156m 
 -458.27475m -355.6827m  292.4156m 
 -458.17475m -355.5413m  292.4156m 
 -458.07475m -355.3999m  292.4156m 
 -457.97475m -464.8860m  182.7881m 
 -457.87475m -464.7446m  182.7881m 
 -457.77475m -464.6032m  182.7881m 
 -457.67475m -464.4617m  182.7881m 
 -457.57475m -464.3203m  182.7881m 
 -457.47475m -464.1789m  182.7881m 
 -457.37475m -493.7656m  153.0600m 
 -457.27475m -627.6399m   19.0442m 
 -457.17475m -627.4985m   19.0442m 
 -457.07475m -627.3571m   19.0442m 
 -456.97475m -627.2157m   19.0442m 
 -456.87475m -499.7931m  146.3254m 
 -456.77475m -411.6228m  234.3542m 
 -456.67475m -411.4814m  234.3542m 
 -456.57475m -411.3400m  234.3542m 
 -456.47475m -411.1986m  234.3542m 
 -456.37475m -411.0572m  234.3542m 
 -456.27475m -410.9157m  234.3542m 
 -456.17475m -410.7743m  234.3542m 
 -456.07475m -410.6329m  234.3542m 
 -455.97475m -410.4915m  234.3542m 
 -455.87475m -316.9814m  327.7229m 
 -455.77475m -316.8400m  327.7229m 
 -455.67475m -316.6985m  327.7229m 
 -455.57475m -261.0460m  383.2340m 
 -455.47475m -260.9045m  383.2340m 
 -455.37475m   -1.1139  -469.8723m 
 -455.27475m   -1.1137  -469.8723m 
 -455.17475m   -1.1652  -521.4384m 
 -455.07475m   -1.1056  -461.9821m 
 -454.97475m   -1.2719  -628.5156m 
 -454.87475m   -1.4019  -758.5863m 
 -454.77475m   -1.1337  -490.5715m 
 -454.67475m -836.9746m -193.9674m 
 -454.57475m -614.7885m   28.0772m 
 -454.47475m -614.6471m   28.0772m 
 -454.37475m -503.4834m  139.0995m 
 -454.27475m -526.3354m  116.1061m 
 -454.17475m -526.1940m  116.1061m 
 -454.07475m -526.0526m  116.1061m 
 -453.97475m -525.9112m  116.1061m 
 -453.87475m -525.7698m  116.1061m 
 -453.77475m -525.6283m  116.1061m 
 -453.67475m -525.4869m  116.1061m 
 -453.57475m -525.3455m  116.1061m 
 -453.47475m -525.2041m  116.1061m 
 -453.37475m -534.5869m  106.5819m 
 -453.27475m -328.6597m  312.3676m 
 -453.17475m -328.5182m  312.3676m 
 -453.07475m -350.5014m  290.2430m 
 -452.97475m -350.3600m  290.2430m 
 -452.87475m -350.2186m  290.2430m 
 -452.77475m -350.0772m  290.2430m 
 -452.67475m -349.9357m  290.2430m 
 -452.57475m -349.7943m  290.2430m 
 -452.47475m -294.1418m  345.7542m 
 -452.37475m -294.0003m  345.7542m 
 -452.27475m -310.1178m  329.4953m 
 -452.17475m -349.2328m  290.2388m 
 -452.07475m -349.0914m  290.2388m 
 -451.97475m -348.9500m  290.2388m 
 -451.87475m -412.4491m  226.5983m 
 -451.77475m -412.3077m  226.5983m 
 -451.67475m -412.1663m  226.5983m 
 -451.57475m -412.0249m  226.5983m 
 -451.47475m -411.8835m  226.5983m 
 -451.37475m -411.7420m  226.5983m 
 -451.27475m -403.4712m  234.7277m 
 -451.17475m -403.3298m  234.7277m 
 -451.07475m -403.1884m  234.7277m 
 -450.97475m -403.0469m  234.7277m 
 -450.87475m -125.3498m  512.2834m 
 -450.77475m -604.9741m   32.5177m 
 -450.67475m -294.7592m  342.5911m 
 -450.57475m -294.6178m  342.5911m 
 -450.47475m -294.4764m  342.5911m 
 -450.37475m -294.3350m  342.5911m 
 -450.27475m -310.4524m  326.3323m 
 -450.17475m -310.3110m  326.3323m 
 -450.07475m -310.1695m  326.3323m 
 -449.97475m -310.0281m  326.3323m 
 -449.87475m -309.8867m  326.3323m 
 -449.77475m -309.7453m  326.3323m 
 -449.67475m -309.6039m  326.3323m 
 -449.57475m -309.4624m  326.3323m 
 -449.47475m -309.3210m  326.3323m 
 -449.37475m -309.1796m  326.3323m 
 -449.27475m -295.5689m  339.8015m 
 -449.17475m -295.4275m  339.8015m 
 -449.07475m -295.2861m  339.8015m 
 -448.97475m -295.1446m  339.8015m 
 -448.87475m -327.5209m  307.2839m 
 -448.77475m -327.3795m  307.2839m 
 -448.67475m -327.2381m  307.2839m 
 -448.57475m -406.9960m  227.3844m 
 -448.47475m -406.8546m  227.3844m 
 -448.37475m -406.7132m  227.3844m 
 -448.27475m -351.0606m  282.8956m 
 -448.17475m -350.9192m  282.8956m 
 -448.07475m -350.7778m  282.8956m 
 -447.97475m -350.6364m  282.8956m 
 -447.87475m -633.3905m    0.      
 -447.77475m -633.2491m    0.      
 -447.67475m -633.1077m    0.      
 -447.57475m -632.9663m    0.      
 -447.47475m -632.8249m    0.      
 -447.37475m -632.6834m    0.      
 -447.27475m -632.5420m    0.      
 -447.17475m -632.4006m    0.      
 -447.07475m -632.2592m    0.      
 -446.97475m -632.1177m    0.      
 -446.87475m -631.9763m    0.      
 -446.77475m -631.8349m    0.      
 -446.67475m -631.6935m    0.      
 -446.57475m -631.5521m    0.      
 -446.47475m -631.4106m    0.      
 -446.37475m -631.2692m    0.      
 -446.27475m -541.1264m   90.0014m 
 -446.17475m -540.9850m   90.0014m 
 -446.07475m -540.8436m   90.0014m 
 -445.97475m -540.7022m   90.0014m 
 -445.87475m -397.0208m  233.5413m 
 -445.77475m -436.1275m  194.2932m 
 -445.67475m -565.2397m   65.0396m 
 -445.57475m -565.0983m   65.0396m 
 -445.47475m -564.9569m   65.0396m 
 -445.37475m -564.8155m   65.0396m 
 -445.27475m -740.7359m -111.0223m 
 -445.17475m -740.5945m -111.0223m 
 -445.07475m -740.4530m -111.0223m 
 -444.97475m -740.3116m -111.0223m 
 -444.87475m -671.1898m  -42.0419m 
 -444.77475m -583.0195m   45.9869m 
 -444.67475m -670.9069m  -42.0419m 
 -444.57475m -582.7367m   45.9869m 
 -444.47475m -582.5953m   45.9869m 
 -444.37475m -582.4539m   45.9869m 
 -444.27475m -582.3124m   45.9869m 
 -444.17475m -494.1422m  134.0158m 
 -444.07475m -559.0361m   68.9804m 
 -443.97475m -558.8947m   68.9804m 
 -443.87475m -558.7533m   68.9804m 
 -443.77475m -558.6119m   68.9804m 
 -443.67475m -558.4704m   68.9804m 
 -443.57475m -558.3290m   68.9804m 
 -443.47475m -558.1876m   68.9804m 
 -443.37475m -558.0462m   68.9804m 
 -443.27475m -310.0771m  316.8081m 
 -443.17475m -309.9357m  316.8081m 
 -443.07475m -309.7942m  316.8081m 
 -442.97475m -309.6528m  316.8081m 
 -442.87475m -309.5114m  316.8081m 
 -442.77475m -404.1334m  222.0446m 
 -442.67475m -403.9920m  222.0446m 
 -442.57475m -403.8506m  222.0446m 
 -442.47475m -403.7092m  222.0446m 
 -442.37475m -403.5678m  222.0446m 
 -442.27475m -419.6852m  205.7858m 
 -442.17475m -419.5438m  205.7858m 
 -442.07475m -419.4023m  205.7858m 
 -441.97475m -388.1380m  236.9087m 
 -441.87475m -387.9966m  236.9087m 
 -441.77475m -339.0787m  285.6852m 
 -441.67475m -299.6891m  324.9333m 
 -441.57475m -237.3019m  387.1791m 
 -441.47475m -126.1382m  498.2014m 
 -441.37475m  -93.4791m  530.7191m 
 -441.27475m  -93.3377m  530.7191m 
 -441.17475m -758.7481m -134.8328m 
 -441.07475m -525.0654m   98.7085m 
 -440.97475m -397.6428m  225.9897m 
 -440.87475m -397.5014m  225.9897m 
 -440.77475m -239.5337m  383.8160m 
 -440.67475m -239.3922m  383.8160m 
 -440.57475m -239.2508m  383.8160m 
 -440.47475m -239.1094m  383.8160m 
 -440.37475m -238.9680m  383.8160m 
 -440.27475m -183.3154m  439.3271m 
 -440.17475m  -72.1559m  550.3452m 
 -440.07475m  -72.0145m  550.3452m 
 -439.97475m  -71.8730m  550.3452m 
 -439.87475m  -71.7316m  550.3452m 
 -439.77475m  -71.5902m  550.3452m 
 -439.67475m  -71.4488m  550.3452m 
 -439.57475m  -71.3074m  550.3452m 
 -439.47475m  -71.1659m  550.3452m 
 -439.37475m  -71.0245m  550.3452m 
 -439.27475m  -70.8831m  550.3452m 
 -439.17475m  259.5357m  880.6225m 
 -439.07475m  389.7478m    1.0107  
 -438.97475m   77.0262m  697.8303m 
 -438.87475m  276.2188m  896.8814m 
 -438.77475m  276.3602m  896.8814m 
 -438.67475m  220.9905m  841.3702m 
 -438.57475m -219.5900m  400.6483m 
 -438.47475m -219.4486m  400.6483m 
 -438.37475m -219.3072m  400.6483m 
 -438.27475m -235.4246m  384.3895m 
 -438.17475m -235.2832m  384.3895m 
 -438.07475m -195.8936m  423.6376m 
 -437.97475m -130.7168m  488.6730m 
 -437.87475m -202.3538m  416.8946m 
 -437.77475m -202.2124m  416.8946m 
 -437.67475m -202.0710m  416.8946m 
 -437.57475m -201.9295m  416.8946m 
 -437.47475m -201.7881m  416.8946m 
 -437.37475m -201.6467m  416.8946m 
 -437.27475m -201.5053m  416.8946m 
 -437.17475m -162.1115m  456.1469m 
 -437.07475m -122.7136m  495.4034m 
 -436.97475m -217.3357m  400.6400m 
 -436.87475m -217.1942m  400.6400m 
 -436.77475m -217.0528m  400.6400m 
 -436.67475m -216.9114m  400.6400m 
 -436.57475m -216.7700m  400.6400m 
 -436.47475m -216.6286m  400.6400m 
 -436.37475m -216.4871m  400.6400m 
 -436.27475m -216.3457m  400.6400m 
 -436.17475m -216.2043m  400.6400m 
 -436.07475m -199.7998m  416.9030m 
 -435.97475m -639.5549m  -22.9935m 
 -435.87475m -678.6658m  -62.2458m 
 -435.77475m -688.0485m  -71.7700m 
 -435.67475m -687.9071m  -71.7700m 
 -435.57475m -687.7657m  -71.7700m 
 -435.47475m -687.6243m  -71.7700m 
 -435.37475m -687.4829m  -71.7700m 
 -435.27475m -687.3414m  -71.7700m 
 -435.17475m -277.0233m  338.4068m 
 -435.07475m -165.8596m  449.4291m 
 -434.97475m -165.7181m  449.4291m 
 -434.87475m -165.5767m  449.4291m 
 -434.77475m -126.1830m  488.6814m 
 -434.67475m -380.6038m  234.1191m 
 -434.57475m -380.4624m  234.1191m 
 -434.47475m -380.3210m  234.1191m 
 -434.37475m -380.1796m  234.1191m 
 -434.27475m -380.0382m  234.1191m 
 -434.17475m -379.8967m  234.1191m 
 -434.07475m -419.0076m  194.8668m 
 -433.97475m -418.8662m  194.8668m 
 -433.87475m -418.7248m  194.8668m 
 -433.77475m -323.8199m  289.6302m 
 -433.67475m -323.6785m  289.6302m 
 -433.57475m -323.5371m  289.6302m 
 -433.47475m -323.3956m  289.6302m 
 -433.37475m -323.2542m  289.6302m 
 -433.27475m -323.1128m  289.6302m 
 -433.17475m -322.9714m  289.6302m 
 -433.07475m -322.8299m  289.6302m 
 -432.97475m -322.6885m  289.6302m 
 -432.87475m -322.5471m  289.6302m 
 -432.77475m -322.4057m  289.6302m 
 -432.67475m -322.2643m  289.6302m 
 -432.57475m -322.1228m  289.6302m 
 -432.47475m -338.2403m  273.3714m 
 -432.37475m -338.0988m  273.3714m 
 -432.27475m -337.9574m  273.3714m 
 -432.17475m -360.8095m  250.3779m 
 -432.07475m -360.6680m  250.3779m 
 -431.97475m -360.5266m  250.3779m 
 -431.87475m -360.3852m  250.3779m 
 -431.77475m -478.0007m  132.6210m 
 -431.67475m -477.8593m  132.6210m 
 -431.57475m -477.7179m  132.6210m 
 -431.47475m -477.5765m  132.6210m 
 -431.37475m -477.4350m  132.6210m 
 -431.27475m -477.2936m  132.6210m 
 -431.17475m -441.2672m  168.5060m 
 -431.07475m -441.1258m  168.5060m 
 -430.97475m -440.9844m  168.5060m 
 -430.87475m -440.8429m  168.5060m 
 -430.77475m -290.4269m  318.7806m 
 -430.67475m -290.2855m  318.7806m 
 -430.57475m -290.1441m  318.7806m 
 -430.47475m -290.0026m  318.7806m 
 -430.37475m -289.8612m  318.7806m 
 -430.27475m -289.7198m  318.7806m 
 -430.17475m -289.5784m  318.7806m 
 -430.07475m -390.9350m  217.2825m 
 -429.97475m -245.2811m  362.7950m 
 -429.87475m -245.1397m  362.7950m 
 -429.77475m -372.2794m  235.5139m 
 -429.67475m -372.1380m  235.5139m 
 -429.57475m -371.9966m  235.5139m 
 -429.47475m -371.8551m  235.5139m 
 -429.37475m -371.7137m  235.5139m 
 -429.27475m -371.5723m  235.5139m 
 -429.17475m -371.4309m  235.5139m 
 -429.07475m -371.2895m  235.5139m 
 -428.97475m -260.1257m  346.5362m 
 -428.87475m -338.4805m  268.0399m 
 -428.77475m -346.4685m  259.9105m 
 -428.67475m -346.3271m  259.9105m 
 -428.57475m -346.1857m  259.9105m 
 -428.47475m -346.0443m  259.9105m 
 -428.37475m -345.9029m  259.9105m 
 -428.27475m -345.7614m  259.9105m 
 -428.17475m -345.6200m  259.9105m 
 -428.07475m -612.1237m   -6.7346m 
 -427.97475m -526.7431m   78.5046m 
 -427.87475m -526.6016m   78.5046m 
 -427.77475m -526.4602m   78.5046m 
 -427.67475m -526.3188m   78.5046m 
 -427.57475m -526.1774m   78.5046m 
 -427.47475m -526.0360m   78.5046m 
 -427.37475m -525.8945m   78.5046m 
 -427.27475m -525.7531m   78.5046m 
 -427.17475m -525.6117m   78.5046m 
 -427.07475m -714.9972m -111.0223m 
 -426.97475m -714.8558m -111.0223m 
 -426.87475m -714.7144m -111.0223m 
 -426.77475m -714.5729m -111.0223m 
 -426.67475m -446.4000m  157.0092m 
 -426.57475m -289.2493m  314.0185m 
 -426.47475m -289.1079m  314.0185m 
 -426.37475m -288.9665m  314.0185m 
 -426.27475m -288.8250m  314.0185m 
 -426.17475m -288.6836m  314.0185m 
 -426.07475m -288.5422m  314.0185m 
 -425.97475m -334.3877m  268.0315m 
 -425.87475m -106.8618m  495.4160m 
 -425.77475m -234.0100m  368.1265m 
 -425.67475m -129.5851m  472.4099m 
 -425.57475m -256.7248m  345.1288m 
 -425.47475m -256.5834m  345.1288m 
 -425.37475m -256.4419m  345.1288m 
 -425.27475m -256.3005m  345.1288m 
 -425.17475m -256.1591m  345.1288m 
 -425.07475m -272.2765m  328.8700m 
 -424.97475m -712.0274m -111.0223m 
 -424.87475m -711.8859m -111.0223m 
 -424.77475m -711.7445m -111.0223m 
 -424.67475m -746.0933m -145.5125m 
 -424.57475m -745.9519m -145.5125m 
 -424.47475m -745.8105m -145.5125m 
 -424.37475m -745.6690m -145.5125m 
 -424.27475m -745.5276m -145.5125m 
 -424.17475m -745.3862m -145.5125m 
 -424.07475m -699.2578m  -99.5256m 
 -423.97475m -699.1164m  -99.5256m 
 -423.87475m -698.9750m  -99.5256m 
 -423.77475m -698.8336m  -99.5256m 
 -423.67475m -517.8724m   81.2942m 
 -423.57475m -517.7310m   81.2942m 
 -423.47475m -517.5895m   81.2942m 
 -423.37475m -517.4481m   81.2942m 
 -423.27475m -517.3067m   81.2942m 
 -423.17475m -517.1653m   81.2942m 
 -423.07475m -517.0238m   81.2942m 
 -422.97475m -516.8824m   81.2942m 
 -422.87475m -516.7410m   81.2942m 
 -422.77475m -516.5996m   81.2942m 
 -422.67475m -421.6947m  176.0577m 
 -422.57475m -421.5533m  176.0577m 
 -422.47475m -421.4119m  176.0577m 
 -422.37475m -421.2704m  176.0577m 
 -422.27475m -421.1290m  176.0577m 
 -422.17475m -420.9876m  176.0577m 
 -422.07475m -471.5952m  125.3086m 
 -421.97475m -288.6615m  308.1009m 
 -421.87475m -288.5201m  308.1009m 
 -421.77475m -288.3787m  308.1009m 
 -421.67475m -407.3890m  188.9492m 
 -421.57475m -407.2475m  188.9492m 
 -421.47475m -407.1061m  188.9492m 
 -421.37475m -406.9647m  188.9492m 
 -421.27475m -406.8233m  188.9492m 
 -421.17475m -406.6819m  188.9492m 
 -421.07475m -518.3798m   77.1098m 
 -420.97475m -518.2384m   77.1098m 
 -420.87475m -518.0969m   77.1098m 
 -420.77475m -517.9555m   77.1098m 
 -420.67475m -266.6191m  328.3048m 
 -420.57475m -155.4512m  439.3313m 
 -420.47475m -250.0733m  344.5678m 
 -420.37475m -210.6837m  383.8160m 
 -420.27475m -238.2979m  356.0604m 
 -420.17475m -238.1564m  356.0604m 
 -420.07475m -238.0150m  356.0604m 
 -419.97475m -237.8736m  356.0604m 
 -419.87475m -237.7322m  356.0604m 
 -419.77475m -324.2248m  269.4263m 
 -419.67475m -324.0834m  269.4263m 
 -419.57475m -323.9420m  269.4263m 
 -419.47475m -323.8005m  269.4263m 
 -419.37475m -323.6591m  269.4263m 
 -419.27475m -323.5177m  269.4263m 
 -419.17475m -323.3763m  269.4263m 
 -419.07475m -323.2349m  269.4263m 
 -418.97475m -323.0934m  269.4263m 
 -418.87475m -322.9520m  269.4263m 
 -418.77475m -322.8106m  269.4263m 
 -418.67475m  -93.8899m  498.2056m 
 -418.57475m  -93.7485m  498.2056m 
 -418.47475m  -93.6071m  498.2056m 
 -418.37475m  -93.4657m  498.2056m 
 -418.27475m  -93.3242m  498.2056m 
 -418.17475m  -93.1828m  498.2056m 
 -418.07475m  -93.0414m  498.2056m 
 -417.97475m -354.1885m  236.9170m 
 -417.87475m -354.0471m  236.9170m 
 -417.77475m -353.9057m  236.9170m 
 -417.67475m -298.2531m  292.4282m 
 -417.57475m -298.1117m  292.4282m 
 -417.47475m -297.9703m  292.4282m 
 -417.37475m -297.8288m  292.4282m 
 -417.27475m -297.6874m  292.4282m 
 -417.17475m -297.5460m  292.4282m 
 -417.07475m -297.4046m  292.4282m 
 -416.97475m -303.9978m  285.6936m 
 -416.87475m -303.8564m  285.6936m 
 -416.77475m -303.7149m  285.6936m 
 -416.67475m -248.0624m  341.2047m 
 -416.57475m -264.1798m  324.9459m 
 -416.47475m -247.7753m  341.2089m 
 -416.37475m -247.6339m  341.2089m 
 -416.27475m -247.4925m  341.2089m 
 -416.17475m -247.3511m  341.2089m 
 -416.07475m -247.2096m  341.2089m 
 -415.97475m -247.0682m  341.2089m 
 -415.87475m -188.0525m  400.0832m 
 -415.77475m -187.9111m  400.0832m 
 -415.67475m -187.7697m  400.0832m 
 -415.57475m -243.1394m  344.5720m 
 -415.47475m -242.9980m  344.5720m 
 -415.37475m -242.8566m  344.5720m 
 -415.27475m -242.7152m  344.5720m 
 -415.17475m -242.5737m  344.5720m 
 -415.07475m -242.4323m  344.5720m 
 -414.97475m -431.8178m  155.0451m 
 -414.87475m -431.6764m  155.0451m 
 -414.77475m -431.5350m  155.0451m 
 -414.67475m -431.3935m  155.0451m 
 -414.57475m -431.2521m  155.0451m 
 -414.47475m -431.1107m  155.0451m 
 -414.37475m -430.9693m  155.0451m 
 -414.27475m -430.8279m  155.0451m 
 -414.17475m -430.6864m  155.0451m 
 -414.07475m -430.5450m  155.0451m 
 -413.97475m -414.1448m  171.3039m 
 -413.87475m -414.0033m  171.3039m 
 -413.77475m -413.8619m  171.3039m 
 -413.67475m -413.7205m  171.3039m 
 -413.57475m -397.3202m  187.5628m 
 -413.47475m -397.1788m  187.5628m 
 -413.37475m -397.0374m  187.5628m 
 -413.27475m -396.8960m  187.5628m 
 -413.17475m -396.7545m  187.5628m 
 -413.07475m -396.6131m  187.5628m 
 -412.97475m -360.5867m  223.4478m 
 -412.87475m -360.4453m  223.4478m 
 -412.77475m -360.3039m  223.4478m 
 -412.67475m -360.1624m  223.4478m 
 -412.57475m -271.9922m  311.4766m 
 -412.47475m -271.8508m  311.4766m 
 -412.37475m -271.7094m  311.4766m 
 -412.27475m -271.5679m  311.4766m 
 -412.17475m -271.4265m  311.4766m 
 -412.07475m -271.2851m  311.4766m 
 -411.97475m -294.1371m  288.4831m 
 -411.87475m -238.4846m  343.9943m 
 -411.77475m -238.3431m  343.9943m 
 -411.67475m -238.2017m  343.9943m 
 -411.57475m -238.0603m  343.9943m 
 -411.47475m -237.9189m  343.9943m 
 -411.37475m -237.7775m  343.9943m 
 -411.27475m -237.6360m  343.9943m 
 -411.17475m -237.4946m  343.9943m 
 -411.07475m -237.3532m  343.9943m 
 -410.97475m -237.2118m  343.9943m 
 -410.87475m -354.8231m  226.2415m 
 -410.77475m -354.6817m  226.2415m 
 -410.67475m -354.5402m  226.2415m 
 -410.57475m -323.2759m  257.3644m 
 -410.47475m -595.9240m  -15.4250m 
 -410.37475m -595.7826m  -15.4250m 
 -410.27475m -595.6411m  -15.4250m 
 -410.17475m -595.4997m  -15.4250m 
 -410.07475m -595.3583m  -15.4250m 
 -409.97475m -534.9436m   44.8482m 
 -409.87475m -534.8022m   44.8482m 
 -409.77475m -534.6608m   44.8482m 
 -409.67475m -534.5193m   44.8482m 
 -409.57475m -344.8510m  234.3752m 
 -409.47475m -344.7096m  234.3752m 
 -409.37475m -344.5682m  234.3752m 
 -409.27475m -344.4267m  234.3752m 
 -409.17475m -344.2853m  234.3752m 
 -409.07475m -344.1439m  234.3752m 
 -408.97475m -327.7436m  250.6340m 
 -408.87475m -327.6022m  250.6340m 
 -408.77475m -327.4608m  250.6340m 
 -408.67475m -248.8147m  329.1386m 
 -408.57475m -248.6733m  329.1386m 
 -408.47475m -248.5319m  329.1386m 
 -408.37475m -248.3905m  329.1386m 
 -408.27475m -248.2491m  329.1386m 
 -408.17475m -248.1076m  329.1386m 
 -408.07475m -247.9662m  329.1386m 
 -407.97475m -247.8248m  329.1386m 
 -407.87475m -247.6834m  329.1386m 
 -407.77475m -247.5420m  329.1386m 
 -407.67475m -247.4005m  329.1386m 
 -407.57475m -247.2591m  329.1386m 
 -407.47475m -247.1177m  329.1386m 
 -407.37475m -246.9763m  329.1386m 
 -407.27475m -246.8348m  329.1386m 
 -407.17475m -246.6934m  329.1386m 
 -407.07475m -246.5520m  329.1386m 
 -406.97475m -230.1517m  345.3975m 
 -406.87475m -230.0103m  345.3975m 
 -406.77475m -229.8689m  345.3975m 
 -406.67475m -229.7275m  345.3975m 
 -406.57475m -229.5861m  345.3975m 
 -406.47475m -229.4446m  345.3975m 
 -406.37475m -229.3032m  345.3975m 
 -406.27475m -229.1618m  345.3975m 
 -406.17475m -229.0204m  345.3975m 
 -406.07475m -228.8790m  345.3975m 
 -405.97475m -189.4852m  384.6498m 
 -405.87475m -270.6338m  303.3598m 
 -405.77475m -270.4924m  303.3598m 
 -405.67475m -270.3510m  303.3598m 
 -405.57475m -440.1103m  133.4590m 
 -405.47475m -439.9689m  133.4590m 
 -405.37475m -439.8275m  133.4590m 
 -405.27475m -384.1749m  188.9701m 
 -405.17475m -384.0335m  188.9701m 
 -405.07475m -383.8921m  188.9701m 
 -404.97475m -311.9806m  260.7401m 
 -404.87475m -311.8392m  260.7401m 
 -404.77475m -311.6978m  260.7401m 
 -404.67475m -414.4493m  157.8473m 
 -404.57475m -469.8190m  102.3361m 
 -404.47475m -508.9257m   63.0880m 
 -404.37475m -508.7843m   63.0880m 
 -404.27475m -508.6428m   63.0880m 
 -404.17475m -508.5014m   63.0880m 
 -404.07475m -508.3600m   63.0880m 
 -403.97475m -508.2186m   63.0880m 
 -403.87475m -411.3663m  159.7988m 
 -403.77475m -543.8417m   27.1820m 
 -403.67475m -602.5787m  -31.6964m 
 -403.57475m -706.7208m -135.9799m 
 -403.47475m -706.5794m -135.9799m 
 -403.37475m -706.4380m -135.9799m 
 -403.27475m -706.2965m -135.9799m 
 -403.17475m -706.1551m -135.9799m 
 -403.07475m -706.0137m -135.9799m 
 -402.97475m -705.8723m -135.9799m 
 -402.87475m -705.7308m -135.9799m 
 -402.77475m -705.5894m -135.9799m 
 -402.67475m -705.4480m -135.9799m 
 -402.57475m -687.0752m -117.7485m 
 -402.47475m -686.9338m -117.7485m 
 -402.37475m -686.7924m -117.7485m 
 -402.27475m -686.6510m -117.7485m 
 -402.17475m -686.5095m -117.7485m 
 -402.07475m -686.3681m -117.7485m 
 -401.97475m -431.6644m  136.8137m 
 -401.87475m -353.0226m  215.3142m 
 -401.77475m -191.1098m  377.0855m 
 -401.67475m -186.2021m  381.8518m 
 -401.57475m -264.5569m  303.3556m 
 -401.47475m -264.4155m  303.3556m 
 -401.37475m -264.2740m  303.3556m 
 -401.27475m -264.1326m  303.3556m 
 -401.17475m -263.9912m  303.3556m 
 -401.07475m -263.8498m  303.3556m 
 -400.97475m -263.7084m  303.3556m 
 -400.87475m -263.5669m  303.3556m 
 -400.77475m   58.1447m  624.9257m 
 -400.67475m   58.2861m  624.9257m 
 -400.57475m   58.4275m  624.9257m 
 -400.47475m  -91.7057m  474.6511m 
 -400.37475m  -91.5643m  474.6511m 
 -400.27475m  -91.4228m  474.6511m 
 -400.17475m  -91.2814m  474.6511m 
 -400.07475m  -91.1400m  474.6511m 
 -399.97475m -313.0432m  252.6065m 
 -399.87475m -329.1606m  236.3477m 
 -399.77475m -329.0192m  236.3477m 
 -399.67475m -328.8778m  236.3477m 
 -399.57475m -332.1037m  232.9804m 
 -399.47475m -279.8184m  285.1242m 
 -399.37475m -318.9293m  245.8719m 
 -399.27475m -318.7879m  245.8719m 
 -399.17475m -318.6464m  245.8719m 
 -399.07475m -318.5050m  245.8719m 
 -398.97475m -318.3636m  245.8719m 
 -398.87475m -373.7333m  190.3607m 
 -398.77475m -284.1599m  279.7927m 
 -398.67475m -339.5254m  224.2858m 
 -398.57475m -339.3840m  224.2858m 
 -398.47475m -228.2203m  335.3081m 
 -398.37475m -228.0789m  335.3081m 
 -398.27475m -227.9375m  335.3081m 
 -398.17475m -227.7960m  335.3081m 
 -398.07475m -227.6546m  335.3081m 
 -397.97475m -227.5132m  335.3081m 
 -397.87475m -440.1608m  122.5190m 
 -397.77475m -240.9683m  321.5702m 
 -397.67475m -240.8268m  321.5702m 
 -397.57475m -240.6854m  321.5702m 
 -397.47475m -240.5440m  321.5702m 
 -397.37475m -240.4026m  321.5702m 
 -397.27475m -240.2612m  321.5702m 
 -397.17475m -240.1197m  321.5702m 
 -397.07475m -239.9783m  321.5702m 
 -396.97475m -239.8369m  321.5702m 
 -396.87475m -239.6955m  321.5702m 
 -396.77475m -262.5475m  298.5767m 
 -396.67475m -246.1431m  314.8397m 
 -396.57475m -246.0017m  314.8397m 
 -396.47475m -245.8602m  314.8397m 
 -396.37475m -245.7188m  314.8397m 
 -396.27475m -245.5774m  314.8397m 
 -396.17475m -245.4360m  314.8397m 
 -396.07475m -245.2945m  314.8397m 
 -395.97475m -245.1531m  314.8397m 
 -395.87475m -300.5229m  259.3286m 
 -395.77475m -300.3814m  259.3286m 
 -395.67475m -300.2400m  259.3286m 
 -395.57475m -300.0986m  259.3286m 
 -395.47475m -319.5833m  239.7024m 
 -395.37475m -319.4419m  239.7024m 
 -395.27475m -311.1711m  247.8318m 
 -395.17475m -311.0296m  247.8318m 
 -395.07475m -310.8882m  247.8318m 
 -394.97475m -310.7468m  247.8318m 
 -394.87475m -669.4595m -111.0223m 
 -394.77475m -669.3181m -111.0223m 
 -394.67475m -669.1767m -111.0223m 
 -394.57475m -669.0353m -111.0223m 
 -394.47475m -616.1723m  -58.3007m 
 -394.37475m -338.4793m  219.2508m 
 -394.27475m -338.3379m  219.2508m 
 -394.17475m -338.1964m  219.2508m 
 -394.07475m -338.0550m  219.2508m 
 -393.97475m -337.9136m  219.2508m 
 -393.87475m -525.3266m   31.6964m 
 -393.77475m -525.1851m   31.6964m 
 -393.67475m -525.0437m   31.6964m 
 -393.57475m -524.9023m   31.6964m 
 -393.47475m -635.7832m  -79.3259m 
 -393.37475m -580.1390m  -23.8231m 
 -393.27475m -579.9976m  -23.8231m 
 -393.17475m -579.8562m  -23.8231m 
 -393.07475m -579.7147m  -23.8231m 
 -392.97475m -713.5891m -157.8389m 
 -392.87475m   -2.3923    -1.8366  
 -392.77475m   -1.2819  -726.4196m 
 -392.67475m   -1.2817  -726.4196m 
 -392.57475m   -1.3926  -837.4420m 
 -392.47475m -707.3196m -152.2765m 
 -392.37475m -707.1782m -152.2765m 
 -392.27475m -707.0368m -152.2765m 
 -392.17475m -706.8953m -152.2765m 
 -392.07475m -706.7539m -152.2765m 
 -391.97475m -706.6125m -152.2765m 
 -391.87475m -239.3884m  314.8062m 
 -391.77475m -239.2470m  314.8062m 
 -391.67475m -183.5944m  370.3173m 
 -391.57475m -183.4530m  370.3173m 
 -391.47475m -183.3116m  370.3173m 
 -391.37475m -183.1701m  370.3173m 
 -391.27475m -183.0287m  370.3173m 
 -391.17475m -182.8873m  370.3173m 
 -391.07475m -182.7459m  370.3173m 
 -390.97475m -182.6044m  370.3173m 
 -390.87475m -182.4630m  370.3173m 
 -390.77475m -182.3216m  370.3173m 
 -390.67475m  435.1813m  987.6788m 
 -390.57475m  760.4995m    1.3129  
 -390.47475m  431.5191m  983.7338m 
 -390.37475m -107.1922m  444.8811m 
 -390.27475m -107.0507m  444.8811m 
 -390.17475m -106.9093m  444.8811m 
 -390.07475m -106.7679m  444.8811m 
 -389.97475m -106.6265m  444.8811m 
 -389.87475m -106.4851m  444.8811m 
 -389.77475m -289.1359m  262.0888m 
 -389.67475m -288.9945m  262.0888m 
 -389.57475m -288.8531m  262.0888m 
 -389.47475m -288.7117m  262.0888m 
 -389.37475m -288.5702m  262.0888m 
 -389.27475m -288.4288m  262.0888m 
 -389.17475m -161.0063m  389.3699m 
 -389.07475m -160.8648m  389.3699m 
 -388.97475m -160.7234m  389.3699m 
 -388.87475m -160.5820m  389.3699m 
 -388.77475m -286.3269m  263.4836m 
 -388.67475m -309.1706m  240.4985m 
 -388.57475m -309.0292m  240.4985m 
 -388.47475m -403.6512m  145.7350m 
 -388.37475m -403.5098m  145.7350m 
 -388.27475m -403.3684m  145.7350m 
 -388.17475m -468.2623m   80.6997m 
 -388.07475m -468.1209m   80.6997m 
 -387.97475m -467.9795m   80.6997m 
 -387.87475m -467.8380m   80.6997m 
 -387.77475m -288.2716m  260.1247m 
 -387.67475m -288.1302m  260.1247m 
 -387.57475m -287.9888m  260.1247m 
 -387.47475m -287.8474m  260.1247m 
 -387.37475m -349.9517m  197.8789m 
 -387.27475m -255.0469m  292.6423m 
 -387.17475m -254.9054m  292.6423m 
 -387.07475m  -32.7194m  514.6869m 
 -386.97475m  -32.5780m  514.6869m 
 -386.87475m  -32.4366m  514.6869m 
 -386.77475m  -32.2951m  514.6869m 
 -386.67475m  -32.1537m  514.6869m 
 -386.57475m  -32.0123m  514.6869m 
 -386.47475m  -31.8709m  514.6869m 
 -386.37475m -173.8747m  372.5418m 
 -386.27475m -173.7332m  372.5418m 
 -386.17475m -173.5918m  372.5418m 
 -386.07475m -173.4504m  372.5418m 
 -385.97475m -299.1953m  246.6554m 
 -385.87475m -299.0539m  246.6554m 
 -385.77475m -298.9125m  246.6554m 
 -385.67475m -298.7711m  246.6554m 
 -385.57475m -324.9904m  220.2946m 
 -385.47475m -324.8490m  220.2946m 
 -385.37475m -308.4487m  236.5535m 
 -385.27475m -308.3073m  236.5535m 
 -385.17475m -308.1659m  236.5535m 
 -385.07475m -308.0245m  236.5535m 
 -384.97475m -307.8831m  236.5535m 
 -384.87475m -307.7416m  236.5535m 
 -384.77475m -168.8223m  375.3313m 
 -384.67475m -168.6809m  375.3313m 
 -384.57475m -168.5395m  375.3313m 
 -384.47475m -168.3981m  375.3313m 
 -384.37475m -334.7901m  208.7979m 
 -384.27475m -373.9010m  169.5456m 
 -384.17475m -373.7596m  169.5456m 
 -384.07475m -373.6181m  169.5456m 
 -383.97475m -373.4767m  169.5456m 
 -383.87475m -373.3353m  169.5456m 
 -383.77475m -523.1133m   19.6262m 
 -383.67475m -522.9719m   19.6262m 
 -383.57475m -522.8305m   19.6262m 
 -383.47475m -522.6890m   19.6262m 
 -383.37475m -522.5476m   19.6262m 
 -383.27475m -522.4062m   19.6262m 
 -383.17475m -522.2648m   19.6262m 
 -383.07475m -522.1233m   19.6262m 
 -382.97475m -521.9819m   19.6262m 
 -382.87475m -521.8405m   19.6262m 
 -382.77475m   -1.0734  -532.1180m 
 -382.67475m   -1.1843  -643.1403m 
 -382.57475m   -1.2762  -735.1142m 
 -382.47475m -289.1283m  251.7727m 
 -382.37475m -305.2499m  235.5097m 
 -382.27475m -305.1085m  235.5097m 
 -382.17475m -304.9670m  235.5097m 
 -382.07475m -304.8256m  235.5097m 
 -381.97475m -304.6842m  235.5097m 
 -381.87475m -304.5428m  235.5097m 
 -381.77475m -296.2719m  243.6391m 
 -381.67475m -296.1305m  243.6391m 
 -381.57475m -295.9891m  243.6391m 
 -381.47475m -295.8477m  243.6391m 
 -381.37475m -539.3453m    0.      
 -381.27475m -539.2039m    0.      
 -381.17475m -539.0625m    0.      
 -381.07475m -538.9211m    0.      
 -380.97475m -538.7797m    0.      
 -380.87475m -538.6382m    0.      
 -380.77475m -538.4968m    0.      
 -380.67475m -538.3554m    0.      
 -380.57475m -538.2140m    0.      
 -380.47475m -538.0725m    0.      
 -380.37475m -467.5559m   70.3752m 
 -380.27475m -506.6626m   31.1271m 
 -380.17475m -506.5212m   31.1271m 
 -380.07475m -506.3798m   31.1271m 
 -379.97475m -506.2384m   31.1271m 
 -379.87475m -506.0969m   31.1271m 
 -379.77475m -505.9555m   31.1271m 
 -379.67475m -665.6129m -128.6717m 
 -379.57475m -665.4715m -128.6717m 
 -379.47475m -309.2697m  227.3886m 
 -379.37475m -253.6171m  282.8998m 
 -379.27475m -197.9687m  338.4068m 
 -379.17475m -197.8273m  338.4068m 
 -379.07475m -197.6859m  338.4068m 
 -378.97475m -197.5445m  338.4068m 
 -378.87475m -197.4031m  338.4068m 
 -378.77475m -236.5139m  299.1544m 
 -378.67475m -236.3725m  299.1544m 
 -378.57475m -236.2311m  299.1544m 
 -378.47475m -236.0897m  299.1544m 
 -378.37475m -235.9483m  299.1544m 
 -378.27475m -235.8068m  299.1544m 
 -378.17475m -235.6654m  299.1544m 
 -378.07475m -235.5240m  299.1544m 
 -377.97475m -235.3826m  299.1544m 
 -377.87475m -235.2412m  299.1544m 
 -377.77475m -235.0997m  299.1544m 
 -377.67475m -234.9583m  299.1544m 
 -377.57475m -234.8169m  299.1544m 
 -377.47475m -234.6755m  299.1544m 
 -377.37475m -350.3185m  183.3700m 
 -377.27475m -350.1770m  183.3700m 
 -377.17475m -350.0356m  183.3700m 
 -377.07475m -349.8942m  183.3700m 
 -376.97475m -349.7528m  183.3700m 
 -376.87475m -349.6113m  183.3700m 
 -376.77475m -349.4699m  183.3700m 
 -376.67475m -349.3285m  183.3700m 
 -376.57475m -349.1871m  183.3700m 
 -376.47475m -349.0457m  183.3700m 
 -376.37475m -445.0625m   87.2118m 
 -376.27475m -444.9211m   87.2118m 
 -376.17475m -444.7796m   87.2118m 
 -376.07475m -444.6382m   87.2118m 
 -375.97475m -444.4968m   87.2118m 
 -375.87475m -444.3554m   87.2118m 
 -375.77475m -444.2140m   87.2118m 
 -375.67475m -427.8137m  103.4706m 
 -375.57475m -418.1481m  112.9948m 
 -375.47475m -445.7622m   85.2393m 
 -375.37475m -445.6208m   85.2393m 
 -375.27475m -517.2494m   13.4693m 
 -375.17475m -517.1080m   13.4693m 
 -375.07475m -516.9665m   13.4693m 
 -374.97475m -373.2851m  157.0092m 
 -374.87475m -373.1437m  157.0092m 
 -374.77475m -373.0023m  157.0092m 
 -374.67475m -183.3339m  346.5362m 
 -374.57475m  -72.1702m  457.5585m 
 -374.47475m  -72.0288m  457.5585m 
 -374.37475m  -71.8874m  457.5585m 
 -374.27475m  -71.7459m  457.5585m 
 -374.17475m  -71.6045m  457.5585m 
 -374.07475m  -71.4631m  457.5585m 
 -373.97475m  -71.3217m  457.5585m 
 -373.87475m  -71.1803m  457.5585m 
 -373.77475m  -71.0388m  457.5585m 
 -373.67475m  -70.8974m  457.5585m 
 -373.57475m -186.5404m  341.7741m 
 -373.47475m  -95.0070m  433.1660m 
 -373.37475m  -94.8656m  433.1660m 
 -373.27475m  -94.7242m  433.1660m 
 -373.17475m  -94.5828m  433.1660m 
 -373.07475m  -94.4413m  433.1660m 
 -372.97475m  -94.2999m  433.1660m 
 -372.87475m  -94.1585m  433.1660m 
 -372.77475m  -94.0171m  433.1660m 
 -372.67475m  -93.8757m  433.1660m 
 -372.57475m  -93.7342m  433.1660m 
 -372.47475m  -93.5928m  433.1660m 
 -372.37475m  -93.4514m  433.1660m 
 -372.27475m -171.8146m  354.6614m 
 -372.17475m -171.6732m  354.6614m 
 -372.07475m -171.5318m  354.6614m 
 -371.97475m -171.3903m  354.6614m 
 -371.87475m -171.2489m  354.6614m 
 -371.77475m -171.1075m  354.6614m 
 -371.67475m -250.8655m  274.7620m 
 -371.57475m -270.3502m  255.1358m 
 -371.47475m -270.2088m  255.1358m 
 -371.37475m -270.0674m  255.1358m 
 -371.27475m -245.5377m  279.5241m 
 -371.17475m -245.3963m  279.5241m 
 -371.07475m -245.2548m  279.5241m 
 -370.97475m -245.1134m  279.5241m 
 -370.87475m -244.9720m  279.5241m 
 -370.77475m -244.8306m  279.5241m 
 -370.67475m -244.6892m  279.5241m 
 -370.57475m -244.5477m  279.5241m 
 -370.47475m -283.6586m  240.2718m 
 -370.37475m -283.5172m  240.2718m 
 -370.27475m -299.6346m  224.0129m 
 -370.17475m -299.4932m  224.0129m 
 -370.07475m -338.6041m  184.7606m 
 -369.97475m -338.4627m  184.7606m 
 -369.87475m -338.3213m  184.7606m 
 -369.77475m -338.1798m  184.7606m 
 -369.67475m -338.0384m  184.7606m 
 -369.57475m -346.0264m  176.6312m 
 -369.47475m -345.8850m  176.6312m 
 -369.37475m -401.2547m  121.1201m 
 -369.27475m -401.1133m  121.1201m 
 -369.17475m -400.9719m  121.1201m 
 -369.07475m -400.8305m  121.1201m 
 -368.97475m -400.6890m  121.1201m 
 -368.87475m -400.5476m  121.1201m 
 -368.77475m -400.4062m  121.1201m 
 -368.67475m -400.2648m  121.1201m 
 -368.57475m  -86.6826m  434.5608m 
 -368.47475m  -34.4015m  486.7005m 
 -368.37475m   93.0210m  613.9816m 
 -368.27475m   93.1625m  613.9816m 
 -368.17475m   93.3039m  613.9816m 
 -368.07475m   93.4453m  613.9816m 
 -367.97475m   93.5867m  613.9816m 
 -367.87475m   93.7281m  613.9816m 
 -367.77475m   93.8696m  613.9816m 
 -367.67475m   94.0110m  613.9816m 
 -367.57475m   22.3824m  542.2116m 
 -367.47475m   22.5238m  542.2116m 
 -367.37475m  -88.3570m  431.1893m 
 -367.27475m  -88.2156m  431.1893m 
 -367.17475m  -88.0742m  431.1893m 
 -367.07475m  -87.9328m  431.1893m 
 -366.97475m  -87.7914m  431.1893m 
 -366.87475m  -87.6499m  431.1893m 
 -366.77475m  -84.1412m  434.5566m 
 -366.67475m  -83.9998m  434.5566m 
 -366.57475m  -83.8584m  434.5566m 
 -366.47475m  -83.7169m  434.5566m 
 -366.37475m -230.4828m  287.6493m 
 -366.27475m -230.3414m  287.6493m 
 -366.17475m -230.2000m  287.6493m 
 -366.07475m -230.0586m  287.6493m 
 -365.97475m -229.9171m  287.6493m 
 -365.87475m -229.7757m  287.6493m 
 -365.77475m -229.6343m  287.6493m 
 -365.67475m -229.4929m  287.6493m 
 -365.57475m -229.3514m  287.6493m 
 -365.47475m -281.3539m  235.5055m 
 -365.37475m -281.2124m  235.5055m 
 -365.27475m -281.0710m  235.5055m 
 -365.17475m -280.9296m  235.5055m 
 -365.07475m -280.7882m  235.5055m 
 -364.97475m -280.6468m  235.5055m 
 -364.87475m -288.6348m  227.3761m 
 -364.77475m -288.4933m  227.3761m 
 -364.67475m -288.3519m  227.3761m 
 -364.57475m -382.9740m  132.6126m 
 -364.47475m -382.8325m  132.6126m 
 -364.37475m -382.6911m  132.6126m 
 -364.27475m -382.5497m  132.6126m 
 -364.17475m -382.4083m  132.6126m 
 -364.07475m -271.2445m  243.6349m 
 -363.97475m -271.1031m  243.6349m 
 -363.87475m -270.9617m  243.6349m 
 -363.77475m -270.8203m  243.6349m 
 -363.67475m -270.6789m  243.6349m 
 -363.57475m -293.5309m  220.6414m 
 -363.47475m -293.3895m  220.6414m 
 -363.37475m -293.2481m  220.6414m 
 -363.27475m -205.0778m  308.6703m 
 -363.17475m -204.9364m  308.6703m 
 -363.07475m -204.7950m  308.6703m 
 -362.97475m -204.6535m  308.6703m 
 -362.87475m -204.5121m  308.6703m 
 -362.77475m -204.3707m  308.6703m 
 -362.67475m -204.2293m  308.6703m 
 -362.57475m -187.8290m  324.9291m 
 -362.47475m -160.1713m  352.4454m 
 -362.37475m -120.7734m  391.7019m 
 -362.27475m   -9.6139m  502.7200m 
 -362.17475m   -9.4725m  502.7200m 
 -362.07475m   -9.3310m  502.7200m 
 -361.97475m   -9.1896m  502.7200m 
 -361.87475m   -9.0482m  502.7200m 
 -361.77475m   -8.9068m  502.7200m 
 -361.67475m   -8.7653m  502.7200m 
 -361.57475m  -64.1351m  447.2088m 
 -361.47475m -158.7571m  352.4454m 
 -361.37475m -158.6157m  352.4454m 
 -361.27475m -230.2443m  280.6754m 
 -361.17475m -230.1028m  280.6754m 
 -361.07475m -229.9614m  280.6754m 
 -360.97475m -229.8200m  280.6754m 
 -360.87475m -229.6786m  280.6754m 
 -360.77475m -229.5372m  280.6754m 
 -360.67475m -229.3957m  280.6754m 
 -360.57475m -229.2543m  280.6754m 
 -360.47475m -229.1129m  280.6754m 
 -360.37475m -228.9715m  280.6754m 
 -360.27475m -295.8379m  213.6675m 
 -360.17475m -295.6965m  213.6675m 
 -360.07475m -295.5551m  213.6675m 
 -359.97475m -295.4137m  213.6675m 
 -359.87475m -295.2723m  213.6675m 
 -359.77475m -295.1308m  213.6675m 
 -359.67475m -294.9894m  213.6675m 
 -359.57475m -246.0715m  262.4440m 
 -359.47475m -245.9301m  262.4440m 
 -359.37475m -245.7886m  262.4440m 
 -359.27475m  -28.3647m  479.7265m 
 -359.17475m  -68.2926m  439.6572m 
 -359.07475m  -68.1512m  439.6572m 
 -358.97475m  -68.0098m  439.6572m 
 -358.87475m  -67.8684m  439.6572m 
 -358.77475m  -67.7270m  439.6572m 
 -358.67475m  -67.5855m  439.6572m 
 -358.57475m  -67.4441m  439.6572m 
 -358.47475m  -67.3027m  439.6572m 
 -358.37475m  -67.1613m  439.6572m 
 -358.27475m  -67.0199m  439.6572m 
 -358.17475m -506.5356m    0.      
 -358.07475m -506.3942m    0.      
 -357.97475m -506.2527m    0.      
 -357.87475m -506.1113m    0.      
 -357.77475m -505.9699m    0.      
 -357.67475m -505.8285m    0.      
 -357.57475m -505.6871m    0.      
 -357.47475m -272.0043m  233.5413m 
 -357.37475m -319.2404m  186.1638m 
 -357.27475m -263.5878m  241.6750m 
 -357.17475m -263.4464m  241.6750m 
 -357.07475m -263.3050m  241.6750m 
 -356.97475m -207.6524m  297.1861m 
 -356.87475m  -40.9775m  463.7196m 
 -356.77475m -191.1107m  313.4449m 
 -356.67475m -190.9693m  313.4449m 
 -356.57475m -190.8279m  313.4449m 
 -356.47475m -190.6865m  313.4449m 
 -356.37475m -223.0669m  280.9231m 
 -356.27475m -167.4144m  336.4342m 
 -356.17475m -167.2729m  336.4342m 
 -356.07475m -167.1315m  336.4342m 
 -355.97475m -166.9901m  336.4342m 
 -355.87475m -166.8487m  336.4342m 
 -355.77475m -166.7072m  336.4342m 
 -355.67475m -166.5658m  336.4342m 
 -355.57475m -166.4244m  336.4342m 
 -355.47475m -277.3053m  225.4119m 
 -355.37475m -277.1639m  225.4119m 
 -355.27475m -339.2682m  163.1661m 
 -355.17475m -339.1268m  163.1661m 
 -355.07475m -338.9854m  163.1661m 
 -354.97475m -338.8440m  163.1661m 
 -354.87475m -338.7025m  163.1661m 
 -354.77475m -338.5611m  163.1661m 
 -354.67475m -338.4197m  163.1661m 
 -354.57475m -338.2783m  163.1661m 
 -354.47475m -227.1146m  274.1884m 
 -354.37475m -226.9731m  274.1884m 
 -354.27475m -226.8317m  274.1884m 
 -354.17475m -226.6903m  274.1884m 
 -354.07475m -226.5489m  274.1884m 
 -353.97475m -226.4074m  274.1884m 
 -353.87475m -226.2660m  274.1884m 
 -353.77475m -226.1246m  274.1884m 
 -353.67475m -225.9832m  274.1884m 
 -353.57475m -225.8418m  274.1884m 
 -353.47475m -225.7003m  274.1884m 
 -353.37475m -225.5589m  274.1884m 
 -353.27475m -225.4175m  274.1884m 
 -353.17475m -225.2761m  274.1884m 
 -353.07475m -225.1347m  274.1884m 
 -352.97475m -224.9932m  274.1884m 
 -352.87475m -224.8518m  274.1884m 
 -352.77475m -196.9548m  301.9440m 
 -352.67475m -196.8134m  301.9440m 
 -352.57475m -196.6720m  301.9440m 
 -352.47475m -196.5306m  301.9440m 
 -352.37475m -196.3891m  301.9440m 
 -352.27475m -184.7510m  313.4408m 
 -352.17475m -218.1093m  279.9410m 
 -352.07475m -217.9679m  279.9410m 
 -351.97475m -217.8265m  279.9410m 
 -351.87475m -256.9373m  240.6887m 
 -351.77475m -256.7959m  240.6887m 
 -351.67475m -256.6545m  240.6887m 
 -351.57475m -256.5131m  240.6887m 
 -351.47475m -263.5190m  233.5413m 
 -351.37475m -263.3776m  233.5413m 
 -351.27475m -263.2362m  233.5413m 
 -351.17475m -290.8503m  205.7858m 
 -351.07475m -223.7052m  272.7895m 
 -350.97475m -155.1611m  341.1921m 
 -350.87475m -155.0197m  341.1921m 
 -350.77475m -154.8783m  341.1921m 
 -350.67475m -154.7368m  341.1921m 
 -350.57475m -154.5954m  341.1921m 
 -350.47475m -116.1880m  379.4582m 
 -350.37475m -342.8532m  152.6515m 
 -350.27475m -342.7118m  152.6515m 
 -350.17475m -270.8004m  224.4215m 
 -350.07475m -270.6590m  224.4215m 
 -349.97475m -270.5176m  224.4215m 
 -349.87475m -270.3761m  224.4215m 
 -349.77475m -270.2347m  224.4215m 
 -349.67475m -270.0933m  224.4215m 
 -349.57475m -269.9519m  224.4215m 
 -349.47475m -214.2993m  279.9326m 
 -349.37475m -214.1579m  279.9326m 
 -349.27475m -214.0165m  279.9326m 
 -349.17475m -186.1195m  307.6882m 
 -349.07475m -185.9781m  307.6882m 
 -348.97475m -185.8366m  307.6882m 
 -348.87475m -185.6952m  307.6882m 
 -348.77475m -185.5538m  307.6882m 
 -348.67475m -185.4124m  307.6882m 
 -348.57475m -185.2709m  307.6882m 
 -348.47475m -284.6551m  208.1626m 
 -348.37475m -284.5137m  208.1626m 
 -348.27475m -323.6246m  168.9103m 
 -348.17475m -284.2350m  208.1584m 
 -348.07475m -273.5831m  218.6689m 
 -347.97475m -245.6903m  246.4203m 
 -347.87475m -245.5489m  246.4203m 
 -347.77475m -245.4075m  246.4203m 
 -347.67475m -245.2661m  246.4203m 
 -347.57475m -245.1246m  246.4203m 
 -347.47475m -244.9832m  246.4203m 
 -347.37475m -244.8418m  246.4203m 
 -347.27475m -244.7004m  246.4203m 
 -347.17475m -244.5589m  246.4203m 
 -347.07475m -244.4175m  246.4203m 
 -346.97475m -244.2761m  246.4203m 
 -346.87475m -244.1347m  246.4203m 
 -346.77475m -243.9933m  246.4203m 
 -346.67475m -243.8518m  246.4203m 
 -346.57475m -243.7104m  246.4203m 
 -346.47475m -284.2035m  205.7858m 
 -346.37475m -281.6769m  208.1710m 
 -346.27475m -281.5354m  208.1710m 
 -346.17475m -281.3940m  208.1710m 
 -346.07475m -281.2526m  208.1710m 
 -345.97475m -281.1112m  208.1710m 
 -345.87475m -280.9697m  208.1710m 
 -345.77475m -280.8283m  208.1710m 
 -345.67475m -280.6869m  208.1710m 
 -345.57475m -213.5376m  275.1789m 
 -345.47475m -213.3962m  275.1789m 
 -345.37475m -201.7580m  286.6756m 
 -345.27475m -201.6166m  286.6756m 
 -345.17475m -229.2308m  258.9201m 
 -345.07475m -229.0893m  258.9201m 
 -344.97475m -228.9479m  258.9201m 
 -344.87475m -228.8065m  258.9201m 
 -344.77475m -228.6651m  258.9201m 
 -344.67475m -228.5236m  258.9201m 
 -344.57475m -228.3822m  258.9201m 
 -344.47475m -200.4852m  286.6756m 
 -344.37475m -200.3438m  286.6756m 
 -344.27475m -200.2024m  286.6756m 
 -344.17475m -227.8165m  258.9201m 
 -344.07475m -227.6751m  258.9201m 
 -343.97475m -227.5337m  258.9201m 
 -343.87475m -227.3923m  258.9201m 
 -343.77475m -102.3508m  383.8201m 
 -343.67475m  -74.4538m  411.5757m 
 -343.57475m  -74.3123m  411.5757m 
 -343.47475m  -74.1709m  411.5757m 
 -343.37475m   -7.0216m  478.5836m 
 -343.27475m   -6.8802m  478.5836m 
 -343.17475m   -6.7388m  478.5836m 
 -343.07475m   21.1582m  506.3392m 
 -342.97475m   21.2996m  506.3392m 
 -342.87475m   21.4411m  506.3392m 
 -342.77475m   21.5825m  506.3392m 
 -342.67475m   21.7239m  506.3392m 
 -342.57475m   21.8653m  506.3392m 
 -342.47475m   22.0068m  506.3392m 
 -342.37475m   22.1482m  506.3392m 
 -342.27475m   22.2896m  506.3392m 
 -342.17475m   50.1866m  534.0948m 
 -342.07475m   50.3280m  534.0948m 
 -341.97475m   50.4694m  534.0948m 
 -341.87475m   50.6109m  534.0948m 
 -341.77475m   50.7523m  534.0948m 
 -341.67475m   50.8937m  534.0948m 
 -341.57475m   51.0351m  534.0948m 
 -341.47475m   51.1765m  534.0948m 
 -341.37475m -113.2430m  369.5338m 
 -341.27475m -207.8650m  274.7704m 
 -341.17475m -429.3639m   53.1301m 
 -341.07475m -429.2224m   53.1301m 
 -340.97475m -429.0810m   53.1301m 
 -340.87475m -428.9396m   53.1301m 
 -340.77475m -428.7982m   53.1301m 
 -340.67475m -428.6567m   53.1301m 
 -340.57475m -428.5153m   53.1301m 
 -340.47475m -428.3739m   53.1301m 
 -340.37475m -423.4704m   57.8922m 
 -340.27475m -423.3290m   57.8922m 
 -340.17475m -351.4175m  129.6622m 
 -340.07475m -351.2761m  129.6622m 
 -339.97475m -351.1347m  129.6622m 
 -339.87475m -350.9933m  129.6622m 
 -339.77475m -350.8519m  129.6622m 
 -339.67475m -350.7104m  129.6622m 
 -339.57475m -350.5690m  129.6622m 
 -339.47475m -350.4276m  129.6622m 
 -339.37475m -182.7665m  297.1819m 
 -339.27475m -182.6250m  297.1819m 
 -339.17475m -154.7280m  324.9375m 
 -339.07475m -242.6154m  236.9087m 
 -338.97475m -242.4740m  236.9087m 
 -338.87475m -242.3326m  236.9087m 
 -338.77475m -242.1912m  236.9087m 
 -338.67475m -242.0498m  236.9087m 
 -338.57475m -237.1462m  241.6708m 
 -338.47475m -237.0048m  241.6708m 
 -338.37475m -236.8634m  241.6708m 
 -338.27475m -236.7220m  241.6708m 
 -338.17475m -236.5806m  241.6708m 
 -338.07475m -236.4391m  241.6708m 
 -337.97475m -236.2977m  241.6708m 
 -337.87475m -236.1563m  241.6708m 
 -337.77475m -236.0149m  241.6708m 
 -337.67475m -235.8734m  241.6708m 
 -337.57475m -235.7320m  241.6708m 
 -337.47475m -235.5906m  241.6708m 
 -337.37475m -235.4492m  241.6708m 
 -337.27475m -235.3078m  241.6708m 
 -337.17475m -235.1663m  241.6708m 
 -337.07475m -235.0249m  241.6708m 
 -336.97475m -234.8835m  241.6708m 
 -336.87475m -234.7421m  241.6708m 
 -336.77475m -234.6007m  241.6708m 
 -336.67475m -234.4592m  241.6708m 
 -336.57475m -234.3178m  241.6708m 
 -336.47475m -234.1764m  241.6708m 
 -336.37475m -206.2794m  269.4263m 
 -336.27475m  -78.8568m  396.7075m 
 -336.17475m   32.3027m  507.7256m 
 -336.07475m   32.4441m  507.7256m 
 -335.97475m   32.5855m  507.7256m 
 -335.87475m   32.7270m  507.7256m 
 -335.77475m   32.8684m  507.7256m 
 -335.67475m   33.0098m  507.7256m 
 -335.57475m   33.1512m  507.7256m 
 -335.47475m   33.2927m  507.7256m 
 -335.37475m   67.9243m  542.2158m 
 -335.27475m   68.0657m  542.2158m 
 -335.17475m   68.2071m  542.2158m 
 -335.07475m   68.3485m  542.2158m 
 -334.97475m   68.4900m  542.2158m 
 -334.87475m   68.6314m  542.2158m 
 -334.77475m   68.7728m  542.2158m 
 -334.67475m  135.9221m  609.2237m 
 -334.57475m  136.0635m  609.2237m 
 -334.47475m  136.2050m  609.2237m 
 -334.37475m  136.3464m  609.2237m 
 -334.27475m  136.4878m  609.2237m 
 -334.17475m  136.6292m  609.2237m 
 -334.07475m  109.0151m  581.4681m 
 -333.97475m  109.1565m  581.4681m 
 -333.87475m  109.2979m  581.4681m 
 -333.77475m  109.4393m  581.4681m 
 -333.67475m  109.5808m  581.4681m 
 -333.57475m  109.7222m  581.4681m 
 -333.47475m  109.8636m  581.4681m 
 -333.37475m  110.0050m  581.4681m 
 -333.27475m  110.1464m  581.4681m 
 -333.17475m  110.2879m  581.4681m 
 -333.07475m  138.1849m  609.2237m 
 -332.97475m  138.3263m  609.2237m 
 -332.87475m  138.4677m  609.2237m 
 -332.77475m  138.6091m  609.2237m 
 -332.67475m  138.7505m  609.2237m 
 -332.57475m  138.8920m  609.2237m 
 -332.47475m  139.0334m  609.2237m 
 -332.37475m  139.1748m  609.2237m 
 -332.27475m  315.5431m  785.4506m 
 -332.17475m  533.7841m    1.0036  
 -332.07475m  219.0900m  688.7146m 
 -331.97475m  219.2314m  688.7146m 
 -331.87475m  219.3728m  688.7146m 
 -331.77475m  219.5142m  688.7146m 
 -331.67475m  219.6556m  688.7146m 
 -331.57475m  219.7971m  688.7146m 
 -331.47475m  219.9385m  688.7146m 
 -331.37475m  220.0799m  688.7146m 
 -331.27475m  -21.4494m  447.0438m 
 -331.17475m  -21.3080m  447.0438m 
 -331.07475m -230.3197m  237.8907m 
 -330.97475m -230.1782m  237.8907m 
 -330.87475m -230.0368m  237.8907m 
 -330.77475m -229.8954m  237.8907m 
 -330.67475m -229.7540m  237.8907m 
 -330.57475m -229.6126m  237.8907m 
 -330.47475m -229.4711m  237.8907m 
 -330.37475m -229.3297m  237.8907m 
 -330.27475m -196.6706m  270.4084m 
 -330.17475m -224.2806m  242.6570m 
 -330.07475m -224.1392m  242.6570m 
 -329.97475m -223.9977m  242.6570m 
 -329.87475m -223.8563m  242.6570m 
 -329.77475m -223.7149m  242.6570m 
 -329.67475m -290.5814m  175.6491m 
 -329.57475m -290.4399m  175.6491m 
 -329.47475m -290.2985m  175.6491m 
 -329.37475m -290.1571m  175.6491m 
 -329.27475m -154.6051m  311.0597m 
 -329.17475m -187.9592m  277.5641m 
 -329.07475m -231.8364m  233.5455m 
 -328.97475m -231.6950m  233.5455m 
 -328.87475m -231.5536m  233.5455m 
 -328.77475m -231.4122m  233.5455m 
 -328.67475m -231.2708m  233.5455m 
 -328.57475m -286.6447m  178.0302m 
 -328.47475m -286.5033m  178.0302m 
 -328.37475m -286.3618m  178.0302m 
 -328.27475m -215.4367m  248.8139m 
 -328.17475m -215.2953m  248.8139m 
 -328.07475m -175.9015m  288.0662m 
 -327.97475m -175.7601m  288.0662m 
 -327.87475m -175.6187m  288.0662m 
 -327.77475m -175.4773m  288.0662m 
 -327.67475m -175.3358m  288.0662m 
 -327.57475m -147.4388m  315.8218m 
 -327.47475m -147.2974m  315.8218m 
 -327.37475m -147.1560m  315.8218m 
 -327.27475m -202.5257m  260.3107m 
 -327.17475m -202.3843m  260.3107m 
 -327.07475m  -79.7239m  382.8297m 
 -326.97475m  -79.5824m  382.8297m 
 -326.87475m  -79.4410m  382.8297m 
 -326.77475m  -79.2996m  382.8297m 
 -326.67475m  -79.1582m  382.8297m 
 -326.57475m  -79.0167m  382.8297m 
 -326.47475m  -78.8753m  382.8297m 
 -326.37475m  -78.7339m  382.8297m 
 -326.27475m -233.6292m  227.7930m 
 -326.17475m -233.4878m  227.7930m 
 -326.07475m -233.3464m  227.7930m 
 -325.97475m -233.2049m  227.7930m 
 -325.87475m -233.0635m  227.7930m 
 -325.77475m -232.9221m  227.7930m 
 -325.67475m -232.7807m  227.7930m 
 -325.57475m -232.6392m  227.7930m 
 -325.47475m -232.4978m  227.7930m 
 -325.37475m -232.3564m  227.7930m 
 -325.27475m -232.2150m  227.7930m 
 -325.17475m -232.0736m  227.7930m 
 -325.07475m -231.9321m  227.7930m 
 -324.97475m -231.7907m  227.7930m 
 -324.87475m -231.6493m  227.7930m 
 -324.77475m -231.5079m  227.7930m 
 -324.67475m -231.3665m  227.7930m 
 -324.57475m -246.2933m  212.7247m 
 -324.47475m -246.1519m  212.7247m 
 -324.37475m -246.0105m  212.7247m 
 -324.27475m -335.4970m  123.0968m 
 -324.17475m -286.5748m  171.8775m 
 -324.07475m -286.4334m  171.8775m 
 -323.97475m -286.2920m  171.8775m 
 -323.87475m -286.1506m  171.8775m 
 -323.77475m -286.0091m  171.8775m 
 -323.67475m -285.8677m  171.8775m 
 -323.57475m -194.3302m  263.2736m 
 -323.47475m -194.1887m  263.2736m 
 -323.37475m -194.0473m  263.2736m 
 -323.27475m -254.1791m  203.0004m 
 -323.17475m -254.0377m  203.0004m 
 -323.07475m -253.8963m  203.0004m 
 -322.97475m -209.7405m  247.0148m 
 -322.87475m -209.5990m  247.0148m 
 -322.77475m -209.4576m  247.0148m 
 -322.67475m -209.3162m  247.0148m 
 -322.57475m -209.1748m  247.0148m 
 -322.47475m -209.0334m  247.0148m 
 -322.37475m -208.8919m  247.0148m 
 -322.27475m -208.7505m  247.0148m 
 -322.17475m -208.6091m  247.0148m 
 -322.07475m -208.4677m  247.0148m 
 -321.97475m -208.3263m  247.0148m 
 -321.87475m -208.1848m  247.0148m 
 -321.77475m -208.0434m  247.0148m 
 -321.67475m -207.9020m  247.0148m 
 -321.57475m -207.7606m  247.0148m 
 -321.47475m -207.6191m  247.0148m 
 -321.37475m -207.4777m  247.0148m 
 -321.27475m -460.0995m   -5.7484m 
 -321.17475m -242.6714m  211.5383m 
 -321.07475m -242.5299m  211.5383m 
 -320.97475m -242.3885m  211.5383m 
 -320.87475m -242.2471m  211.5383m 
 -320.77475m -242.1057m  211.5383m 
 -320.67475m -230.4675m  223.0351m 
[...]
  453.02525m  380.9374m -259.7371m 
  453.12525m  381.0788m -259.7371m 
  453.22525m  381.2202m -259.7371m 
  453.32525m  381.3616m -259.7371m 
  453.42525m  381.5030m -259.7371m 
  453.52525m  381.6445m -259.7371m 
  453.62525m  381.7859m -259.7371m 
  453.72525m  381.9273m -259.7371m 
  453.82525m  382.0687m -259.7371m 
  453.92525m  382.2101m -259.7371m 
  454.02525m  382.3516m -259.7371m 
  454.12525m  382.4930m -259.7371m 
  454.22525m  382.6344m -259.7371m 
  454.32525m  382.7758m -259.7371m 
  454.42525m  382.9173m -259.7371m 
  454.52525m  383.0587m -259.7371m 
  454.62525m  383.2001m -259.7371m 
  454.72525m  383.3415m -259.7371m 
  454.82525m  383.4829m -259.7371m 
  454.92525m  383.6244m -259.7371m 
  455.02525m  383.7658m -259.7371m 
  455.12525m  383.9072m -259.7371m 
  455.22525m  384.0486m -259.7371m 
  455.32525m  384.1900m -259.7371m 
  455.42525m  384.3315m -259.7371m 
  455.52525m  384.4729m -259.7371m 
  455.62525m  384.6143m -259.7371m 
  455.72525m  495.7780m -148.7148m 
  455.82525m  495.9195m -148.7148m 
  455.92525m  496.0609m -148.7148m 
  456.02525m  496.2023m -148.7148m 
  456.12525m  440.8326m -204.2260m 
  456.22525m  473.4917m -171.7083m 
  456.32525m  473.6331m -171.7083m 
  456.42525m  473.7745m -171.7083m 
  456.52525m  473.9159m -171.7083m 
  456.62525m  474.0574m -171.7083m 
  456.72525m  474.1988m -171.7083m 
  456.82525m  309.2015m -336.8469m 
  456.92525m  309.3429m -336.8469m 
  457.02525m  309.4844m -336.8469m 
  457.12525m  309.6258m -336.8469m 
  457.22525m  309.7672m -336.8469m 
  457.32525m  309.9086m -336.8469m 
  457.42525m  310.0501m -336.8469m 
  457.52525m  310.1915m -336.8469m 
  457.62525m  310.3329m -336.8469m 
  457.72525m  310.4743m -336.8469m 
  457.82525m  397.2498m -250.2129m 
  457.92525m  381.1324m -266.4717m 
  458.02525m  381.2738m -266.4717m 
  458.12525m  381.4152m -266.4717m 
  458.22525m  381.5566m -266.4717m 
  458.32525m  381.6981m -266.4717m 
  458.42525m  381.8395m -266.4717m 
  458.52525m  381.9809m -266.4717m 
  458.62525m  382.1223m -266.4717m 
  458.72525m  382.2637m -266.4717m 
  458.82525m  271.3829m -377.4940m 
  458.92525m  271.5243m -377.4940m 
  459.02525m  271.6657m -377.4940m 
  459.12525m  271.8071m -377.4940m 
  459.22525m  271.9485m -377.4940m 
  459.32525m  272.0900m -377.4940m 
  459.42525m  272.2314m -377.4940m 
  459.52525m  272.3728m -377.4940m 
  459.62525m  272.5142m -377.4940m 
  459.72525m  328.1668m -321.9829m 
  459.82525m  328.3082m -321.9829m 
  459.92525m  328.4496m -321.9829m 
  460.02525m  328.5911m -321.9829m 
  460.12525m  328.7325m -321.9829m 
  460.22525m  328.8739m -321.9829m 
  460.32525m  329.0153m -321.9829m 
  460.42525m  329.1567m -321.9829m 
  460.52525m  329.2982m -321.9829m 
  460.62525m  329.4396m -321.9829m 
  460.72525m  329.5810m -321.9829m 
  460.82525m  329.7224m -321.9829m 
  460.92525m  329.8639m -321.9829m 
  461.02525m  330.0053m -321.9829m 
  461.12525m  330.1467m -321.9829m 
  461.22525m  330.2881m -321.9829m 
  461.32525m  330.4295m -321.9829m 
  461.42525m  386.0821m -266.4717m 
  461.52525m  386.2235m -266.4717m 
  461.62525m  386.3650m -266.4717m 
  461.72525m  386.5064m -266.4717m 
  461.82525m  386.6478m -266.4717m 
  461.92525m  386.7892m -266.4717m 
  462.02525m  386.9306m -266.4717m 
  462.12525m  387.0721m -266.4717m 
  462.22525m  387.2135m -266.4717m 
  462.32525m  387.3549m -266.4717m 
  462.42525m  387.4963m -266.4717m 
  462.52525m  387.6377m -266.4717m 
  462.62525m  387.7792m -266.4717m 
  462.72525m  387.9206m -266.4717m 
  462.82525m  388.0620m -266.4717m 
  462.92525m  388.2034m -266.4717m 
  463.02525m  388.3449m -266.4717m 
  463.12525m  388.4863m -266.4717m 
  463.22525m  388.6277m -266.4717m 
  463.32525m  388.7691m -266.4717m 
  463.42525m  388.9105m -266.4717m 
  463.52525m  389.0520m -266.4717m 
  463.62525m  389.1934m -266.4717m 
  463.72525m  389.3348m -266.4717m 
  463.82525m  389.4762m -266.4717m 
  463.92525m  389.6176m -266.4717m 
  464.02525m  389.7591m -266.4717m 
  464.12525m  389.9005m -266.4717m 
  464.22525m  390.0419m -266.4717m 
  464.32525m  390.1833m -266.4717m 
  464.42525m  390.3248m -266.4717m 
  464.52525m  390.4662m -266.4717m 
  464.62525m  390.6076m -266.4717m 
  464.72525m  390.7490m -266.4717m 
  464.82525m  390.8904m -266.4717m 
  464.92525m  391.0319m -266.4717m 
  465.02525m  391.1733m -266.4717m 
  465.12525m  391.3147m -266.4717m 
  465.22525m  375.2015m -282.7264m 
  465.32525m  375.3429m -282.7264m 
  465.42525m  375.4843m -282.7264m 
  465.52525m  375.6257m -282.7264m 
  465.62525m  375.7672m -282.7264m 
  465.72525m  375.9086m -282.7264m 
  465.82525m  431.5612m -227.2152m 
  465.92525m  748.5065m   89.5886m 
  466.02525m  360.0698m -298.9894m 
  466.12525m  536.6816m -122.5190m 
  466.22525m  465.0530m -194.2890m 
  466.32525m  478.0860m -181.3975m 
  466.42525m  471.4928m -188.1321m 
  466.52525m  481.1584m -178.6079m 
  466.62525m  481.2998m -178.6079m 
  466.72525m  481.4413m -178.6079m 
  466.82525m  481.5827m -178.6079m 
  466.92525m  327.2651m -333.0669m 
  467.02525m  327.4065m -333.0669m 
  467.12525m  327.5480m -333.0669m 
  467.22525m  327.6894m -333.0669m 
  467.32525m  327.8308m -333.0669m 
  467.42525m  327.9722m -333.0669m 
  467.52525m  328.1136m -333.0669m 
  467.62525m  328.2551m -333.0669m 
  467.72525m  328.3965m -333.0669m 
  467.82525m  328.5379m -333.0669m 
  467.92525m  328.6793m -333.0669m 
  468.02525m  328.8208m -333.0669m 
  468.12525m  328.9622m -333.0669m 
  468.22525m  329.1036m -333.0669m 
  468.32525m  329.2450m -333.0669m 
  468.42525m  329.3864m -333.0669m 
  468.52525m  329.5279m -333.0669m 
  468.62525m  718.2473m   55.5112m 
  468.72525m  499.7115m -163.1661m 
  468.82525m  499.8529m -163.1661m 
  468.92525m  516.2532m -146.9073m 
  469.02525m  516.3946m -146.9073m 
  469.12525m  516.5360m -146.9073m 
  469.22525m  516.6774m -146.9073m 
  469.32525m  516.8188m -146.9073m 
  469.42525m  516.9603m -146.9073m 
  469.52525m  517.1017m -146.9073m 
  469.62525m  517.2431m -146.9073m 
  469.72525m  517.3845m -146.9073m 
  469.82525m  517.5259m -146.9073m 
  469.92525m  344.3993m -320.1754m 
  470.02525m  344.5407m -320.1754m 
  470.12525m  344.6821m -320.1754m 
  470.22525m  344.8235m -320.1754m 
  470.32525m  344.9650m -320.1754m 
  470.42525m  345.1064m -320.1754m 
  470.52525m  345.2478m -320.1754m 
  470.62525m  345.3892m -320.1754m 
  470.72525m  345.5307m -320.1754m 
  470.82525m  345.6721m -320.1754m 
  470.92525m  345.8135m -320.1754m 
  471.02525m  345.9549m -320.1754m 
  471.12525m  346.0963m -320.1754m 
  471.22525m  338.1083m -328.3048m 
  471.32525m  282.7428m -383.8118m 
  471.42525m  282.8842m -383.8118m 
  471.52525m  283.0256m -383.8118m 
  471.62525m  283.1671m -383.8118m 
  471.72525m  283.3085m -383.8118m 
  471.82525m  283.4499m -383.8118m 
  471.92525m  283.5913m -383.8118m 
  472.02525m  283.7328m -383.8118m 
  472.12525m  283.8742m -383.8118m 
  472.22525m  284.0156m -383.8118m 
  472.32525m  284.1570m -383.8118m 
  472.42525m  284.2984m -383.8118m 
  472.52525m  284.4399m -383.8118m 
  472.62525m  284.5813m -383.8118m 
  472.72525m  284.7227m -383.8118m 
  472.82525m  284.8641m -383.8118m 
  472.92525m  285.0055m -383.8118m 
  473.02525m  285.1470m -383.8118m 
  473.12525m  285.2884m -383.8118m 
  473.22525m  285.4298m -383.8118m 
  473.32525m  285.5712m -383.8118m 
  473.42525m  285.7127m -383.8118m 
  473.52525m  285.8541m -383.8118m 
  473.62525m  285.9955m -383.8118m 
  473.72525m  286.1369m -383.8118m 
  473.82525m  286.2783m -383.8118m 
  473.92525m  286.4198m -383.8118m 
  474.02525m  286.5612m -383.8118m 
  474.12525m  286.7026m -383.8118m 
  474.22525m  397.8663m -272.7895m 
  474.32525m  398.0077m -272.7895m 
  474.42525m  398.1492m -272.7895m 
  474.52525m  398.2906m -272.7895m 
  474.62525m  398.4320m -272.7895m 
  474.72525m  398.5734m -272.7895m 
  474.82525m  398.7149m -272.7895m 
  474.92525m  398.8563m -272.7895m 
  475.02525m  398.9977m -272.7895m 
  475.12525m  399.1391m -272.7895m 
  475.22525m  399.2805m -272.7895m 
  475.32525m  399.4220m -272.7895m 
  475.42525m  399.5634m -272.7895m 
  475.52525m  399.7048m -272.7895m 
  475.62525m  399.8462m -272.7895m 
  475.72525m  399.9876m -272.7895m 
  475.82525m  400.1291m -272.7895m 
  475.92525m  472.0405m -201.0195m 
  476.02525m  472.1819m -201.0195m 
  476.12525m  472.3233m -201.0195m 
  476.22525m  472.4647m -201.0195m 
  476.32525m  472.6062m -201.0195m 
  476.42525m  472.7476m -201.0195m 
  476.52525m  472.8890m -201.0195m 
  476.62525m  473.0304m -201.0195m 
  476.72525m  473.1719m -201.0195m 
  476.82525m  473.3133m -201.0195m 
  476.92525m  473.4547m -201.0195m 
  477.02525m  607.6119m  -67.0037m 
  477.12525m  607.7533m  -67.0037m 
  477.22525m  607.8947m  -67.0037m 
  477.32525m  608.0362m  -67.0037m 
  477.42525m  608.1776m  -67.0037m 
  477.52525m  608.3190m  -67.0037m 
  477.62525m  608.4604m  -67.0037m 
  477.72525m  608.6018m  -67.0037m 
  477.82525m  608.7433m  -67.0037m 
  477.92525m  800.7885m  124.9001m 
  478.02525m  800.9299m  124.9001m 
  478.12525m  801.0713m  124.9001m 
  478.22525m  801.2127m  124.9001m 
  478.32525m  801.3542m  124.9001m 
  478.42525m  801.4956m  124.9001m 
  478.52525m  801.6370m  124.9001m 
  478.62525m  801.7784m  124.9001m 
  478.72525m  801.9198m  124.9001m 
  478.82525m  802.0613m  124.9001m 
  478.92525m  802.2027m  124.9001m 
  479.02525m  802.3441m  124.9001m 
  479.12525m  802.4855m  124.9001m 
  479.22525m  802.6269m  124.9001m 
  479.32525m  802.7684m  124.9001m 
  479.42525m  802.9098m  124.9001m 
  479.52525m  803.0512m  124.9001m 
  479.62525m  803.1926m  124.9001m 
  479.72525m  803.3340m  124.9001m 
  479.82525m  803.4755m  124.9001m 
  479.92525m  739.3986m   60.6818m 
  480.02525m  739.5400m   60.6818m 
  480.12525m  739.6814m   60.6818m 
  480.22525m  739.8228m   60.6818m 
  480.32525m  739.9643m   60.6818m 
  480.42525m  740.1057m   60.6818m 
  480.52525m  740.2471m   60.6818m 
  480.62525m  740.3885m   60.6818m 
  480.72525m  740.5300m   60.6818m 
  480.82525m  740.6714m   60.6818m 
  480.92525m  740.8128m   60.6818m 
  481.02525m  740.9542m   60.6818m 
  481.12525m  741.0956m   60.6818m 
  481.22525m  741.2371m   60.6818m 
  481.32525m  741.3785m   60.6818m 
  481.42525m  741.5199m   60.6818m 
  481.52525m  741.6613m   60.6818m 
  481.62525m  741.8027m   60.6818m 
  481.72525m  741.9442m   60.6818m 
  481.82525m  742.0856m   60.6818m 
  481.92525m  696.2401m   14.6948m 
  482.02525m  361.9198m -319.7669m 
  482.12525m  401.3093m -280.5187m 
  482.22525m  566.0117m -115.9578m 
  482.32525m  566.1531m -115.9578m 
  482.42525m  566.2945m -115.9578m 
  482.52525m  566.4359m -115.9578m 
  482.62525m  566.5774m -115.9578m 
  482.72525m  566.7188m -115.9578m 
  482.82525m  566.8602m -115.9578m 
  482.92525m  567.0016m -115.9578m 
  483.02525m  567.1430m -115.9578m 
  483.12525m  844.8402m  161.5979m 
  483.22525m  417.1513m -266.2324m 
  483.32525m  417.2927m -266.2324m 
  483.42525m  417.4341m -266.2324m 
  483.52525m  417.5755m -266.2324m 
  483.62525m  417.7170m -266.2324m 
  483.72525m  417.8584m -266.2324m 
  483.82525m  417.9998m -266.2324m 
  483.92525m  418.1412m -266.2324m 
  484.02525m  258.4838m -426.0313m 
  484.12525m  258.6252m -426.0313m 
  484.22525m  258.7667m -426.0313m 
  484.32525m  258.9081m -426.0313m 
  484.42525m  259.0495m -426.0313m 
  484.52525m  259.1909m -426.0313m 
  484.62525m  259.3324m -426.0313m 
  484.72525m  259.4738m -426.0313m 
  484.82525m  210.8387m -474.8078m 
  484.92525m  183.2245m -502.5633m 
  485.02525m  144.1136m -541.8157m 
  485.12525m  487.0196m -199.0511m 
  485.22525m  487.1610m -199.0511m 
  485.32525m  487.3024m -199.0511m 
  485.42525m  325.6725m -360.8225m 
  485.52525m  325.8139m -360.8225m 
  485.62525m  325.9553m -360.8225m 
  485.72525m  326.0968m -360.8225m 
  485.82525m  326.2382m -360.8225m 
  485.92525m  326.3796m -360.8225m 
  486.02525m  453.8022m -233.5413m 
  486.12525m  453.9436m -233.5413m 
  486.22525m  454.0850m -233.5413m 
  486.32525m  454.2264m -233.5413m 
  486.42525m  454.3678m -233.5413m 
  486.52525m  454.5093m -233.5413m 
  486.62525m  454.6507m -233.5413m 
  486.72525m  454.7921m -233.5413m 
  486.82525m  454.9335m -233.5413m 
  486.92525m  455.0750m -233.5413m 
  487.02525m  383.4464m -305.3113m 
  487.12525m  481.7186m -207.1806m 
  487.22525m  609.1412m  -79.8994m 
  487.32525m  488.7319m -200.4501m 
  487.42525m  488.8733m -200.4501m 
  487.52525m  489.0147m -200.4501m 
  487.62525m  489.1561m -200.4501m 
  487.72525m  267.2529m -422.4947m 
  487.82525m  267.3944m -422.4947m 
  487.92525m  267.5358m -422.4947m 
  488.02525m  267.6772m -422.4947m 
  488.12525m  208.9402m -481.3732m 
  488.22525m  209.0816m -481.3732m 
  488.32525m  209.2230m -481.3732m 
  488.42525m  209.3644m -481.3732m 
  488.52525m  209.5059m -481.3732m 
  488.62525m  209.6473m -481.3732m 
  488.72525m  209.7887m -481.3732m 
  488.82525m  209.9301m -481.3732m 
  488.92525m  210.0715m -481.3732m 
  489.02525m  210.2130m -481.3732m 
  489.12525m  146.7138m -545.0138m 
  489.22525m  146.8552m -545.0138m 
  489.32525m  146.9967m -545.0138m 
  489.42525m  147.1381m -545.0138m 
  489.52525m  147.2795m -545.0138m 
  489.62525m  147.4209m -545.0138m 
  489.72525m  147.5623m -545.0138m 
  489.82525m  147.7038m -545.0138m 
  489.92525m  147.8452m -545.0138m 
  490.02525m  283.3972m -409.6032m 
  490.12525m  283.5386m -409.6032m 
  490.22525m  283.6800m -409.6032m 
  490.32525m  283.8214m -409.6032m 
  490.42525m  244.7105m -448.8555m 
  490.52525m   65.4270m -628.2805m 
  490.62525m  461.7023m -232.1466m 
  490.72525m  461.8438m -232.1466m 
  490.82525m  461.9852m -232.1466m 
  490.92525m  462.1266m -232.1466m 
  491.02525m  545.5347m -148.8798m 
  491.12525m  545.6762m -148.8798m 
  491.22525m  545.8176m -148.8798m 
  491.32525m  545.9590m -148.8798m 
  491.42525m  546.1004m -148.8798m 
  491.52525m  546.2419m -148.8798m 
  491.62525m  546.3833m -148.8798m 
  491.72525m  546.5247m -148.8798m 
  491.82525m  546.6661m -148.8798m 
  491.92525m  546.8075m -148.8798m 
  492.02525m  468.4443m -227.3844m 
  492.12525m  468.5858m -227.3844m 
  492.22525m  468.7272m -227.3844m 
  492.32525m  468.8728m -227.3803m 
  492.42525m  469.0142m -227.3803m 
  492.52525m  469.1556m -227.3803m 
  492.62525m  469.2971m -227.3803m 
  492.72525m  469.4385m -227.3803m 
  492.82525m  469.5799m -227.3803m 
  492.92525m  469.7213m -227.3803m 
  493.02525m  287.0705m -410.1725m 
  493.12525m  287.2119m -410.1725m 
  493.22525m  287.3533m -410.1725m 
  493.32525m  287.4947m -410.1725m 
  493.42525m  287.6361m -410.1725m 
  493.52525m  287.7776m -410.1725m 
  493.62525m  287.9190m -410.1725m 
  493.72525m  288.0604m -410.1725m 
  493.82525m  288.2018m -410.1725m 
  493.92525m  288.3432m -410.1725m 
  494.02525m  260.7291m -437.9281m 
  494.12525m  260.8705m -437.9281m 
  494.22525m  261.0119m -437.9281m 
  494.32525m  340.2315m -358.8500m 
  494.42525m  229.3506m -469.8723m 
  494.52525m  229.4921m -469.8723m 
  494.62525m  229.6335m -469.8723m 
  494.72525m  229.7749m -469.8723m 
  494.82525m  229.9163m -469.8723m 
  494.92525m  230.0577m -469.8723m 
y
1****** HSPICE -- Q-2020.03-SP2-2 linux64 (Nov  1 2020) ******                  
 ******  
 .title ex1_1

 ****** operating point information tnom=  25.000 temp=  25.000 ******
 ****** operating point status is all       simulation time is     0.     
    node    =voltage      node    =voltage      node    =voltage

 +0:bl      = 700.0000m 0:blb     = 700.0000m 0:q       =   0.     
 +0:qb      =   0.      0:u       =   0.      0:v1      =   0.     
 +0:v2      =   0.      0:vdd     = 700.0000m 0:wl      =   0.     


 **** voltage sources

 subckt                                   
 element  0:vdd      0:vu       0:vwl     
  volts    700.0000m    0.         0.     
  current  -52.5391u    0.       251.2267f
  power     36.7774u    0.         0.     

     total voltage source power dissipation=   36.7774u       watts



 **** voltage-controlled voltage sources


 subckt                                              
 element  0:eli      0:eri      0:ev1      0:ev2     
  volts      0.         0.         0.         0.     
  current   26.2696u   26.2696u    0.         0.     





 **** mosfets


 subckt                                                                    
 element  0:mp_pu1   0:mp_pu2   0:mn_pd1   0:mn_pd2   0:mn_ax1   0:mn_ax2  
 model    0:pmos_sra 0:pmos_sra 0:nmos_sra 0:nmos_sra 0:nmos_sra 0:nmos_sra
 region   Saturation Saturation Cutoff     Cutoff     Cutoff     Cutoff    
  id       -26.2696u  -26.2696u    0.         0.       678.4893f  678.4893f
  ibs        0.         0.         0.         0.         0.         0.     
  ibd        0.         0.         0.         0.         0.         0.     
  vgs     -700.0000m -700.0000m    0.         0.         0.         0.     
  vds     -700.0000m -700.0000m    0.         0.       700.0000m  700.0000m
  vbs        0.         0.         0.         0.         0.         0.     
  vth     -328.3087m -328.3087m  410.1164m  410.1164m  406.6380m  406.6380m
  vdsat   -374.5754m -374.5754m   70.6690m   70.6690m   70.6690m   70.6690m
  vod     -371.6913m -371.6913m -410.1164m -410.1164m -406.6380m -406.6380m
  beta       1.6413m    1.6413m    2.1736m    2.1736m    2.1736m    2.1736m
  gam eff    0.         0.         0.         0.         0.         0.     
  gm        94.1569u   94.1569u    0.         0.        25.5580p   25.5580p
  gds        9.4596u    9.4596u   14.9555p   14.9555p  516.9705f  516.9705f
  gmb       73.5674p   73.5674p    0.         0.         7.3861a    7.3861a
  cdtot     10.2694a   10.2694a   10.2225a   10.2225a   10.2225a   10.2225a
  cgtot     54.7498a   54.7498a   20.4450a   20.4450a   20.4450a   20.4450a
  cstot     30.0435a   30.0435a   10.2225a   10.2225a   10.2225a   10.2225a
  cbtot      0.         0.         0.         0.         0.         0.     
  cgs       44.7571a   44.7571a   10.2225a   10.2225a   10.2225a   10.2225a
  cgd        9.9928a    9.9928a   10.2225a   10.2225a   10.2225a   10.2225a




          ***** job concluded
 ******  
 .title ex1_1

 ****** job statistics summary tnom=  25.000 temp=  25.000 ******
  
 ******  Machine Information  ******
 CPU:
 model name	: AMD EPYC 7713 64-Core Processor
 cpu MHz	: 2000.000
  
 OS:
 Linux version 3.10.0-1160.88.1.el7.x86_64 (mockbuild@kbuilder.bsys.centos.org) (gcc version 4.8.5 20150623 (Red Hat 4.8.5-44) (GCC) ) #1 SMP Tue Mar 7 15:41:52 UTC 2023


  ******  HSPICE Threads Information  ******

  Command Line Threads Count :     1
  Available CPU Count        :   256
  Actual Threads Count       :     1


  ******  Circuit Statistics  ******
  # nodes       =      10 # elements   =      15
  # resistors   =       0 # capacitors =       2 # inductors   =       0
  # mutual_inds =       0 # vccs       =       0 # vcvs        =       4
  # cccs        =       0 # ccvs       =       0 # volt_srcs   =       3
  # curr_srcs   =       0 # diodes     =       0 # bjts        =       0
  # jfets       =       0 # mosfets    =       6 # U elements  =       0
  # T elements  =       0 # W elements =       0 # B elements  =       0
  # S elements  =       0 # P elements =       0 # va device   =       0
  # vector_srcs =       0 # N elements =       0


  ******  Runtime Statistics (seconds)  ******

  analysis           time    # points   tot. iter  conv.iter
  op point           0.01           1           4
  dc sweep           1.32        9900       51072
  readin             0.02
  errchk             0.00
  setup              0.00
  output             0.00


           peak memory used        398.12 megabytes
           total cpu time            1.38 seconds
           total elapsed time        4.24 seconds
           job started at     22:52:29 03/18/2025
           job ended   at     22:52:33 03/18/2025
           job total runtime         4.24 seconds


 lic: Release hspice token(s) 
 lic: total license checkout elapse time:        2.85(s)
