 ****** HSPICE -- Q-2020.03-SP2-2 linux64 (Nov  1 2020) ******                  
  Copyright (c) 1986 - 2025 by Synopsys, Inc. All Rights Reserved.              
  This software and the associated documentation are proprietary
  to Synopsys, Inc. This software may only be used in accordance
  with the terms and conditions of a written license agreement with
  Synopsys, Inc. All other use, reproduction, or distribution of
  this software is strictly prohibited.
  Input File: ex1_1.sp                                                          
  Command line options: /RAID2/cad/synopsys/hspice/2020.03-sp2-2/hspice/linux64/hspice -i ex1_1.sp -o ex1_1.lis
  Start time: Tue Mar 18 23:51:00 2025
 lic:  
 lic: FLEXlm: SDK_12.6 
 lic: USER:   es25MCS042           HOSTNAME: ee28 
 lic: HOSTID: "d85ed3efc19a"       PID:      83880 
 lic: Using FLEXlm license file: 
 lic: 26585@lshc 
 lic: Checkout 1 hspice 
 lic: License/Maintenance for hspice will expire on 14-may-2025/2024.09 
 lic: 168(in_use)/1100(total) FLOATING license(s) on SERVER 26585@lshc 
 lic:   
  
      
 **info** set option symb=1 internally to help for convergence.
 *****************************************************************
 ******  option summary
 ******
 runlvl  = 3         bypass  = 2.0000    
 ******
 .title ex1_1

 ****** dc transfer curves tnom=  25.000 temp=  25.000 ******
x

 volt         voltage    voltage   
             q          qb         
    0.          0.       262.6955n 
  100.00000u  100.0000u  262.6013n 
  200.00000u  200.0000u  262.5072n 
  300.00000u  300.0000u  262.4130n 
  400.00000u  400.0000u  262.3188n 
  500.00000u  500.0000u  262.2246n 
  600.00000u  600.0000u  262.1304n 
  700.00000u  700.0000u  262.0362n 
  800.00000u  800.0000u  261.9419n 
  900.00000u  900.0000u  261.8477n 
    1.00000m    1.0000m  261.7535n 
    1.10000m    1.1000m  261.6592n 
    1.20000m    1.2000m  261.5650n 
    1.30000m    1.3000m  261.4707n 
    1.40000m    1.4000m  261.3764n 
    1.50000m    1.5000m  261.2821n 
    1.60000m    1.6000m  261.1878n 
    1.70000m    1.7000m  261.0935n 
    1.80000m    1.8000m  260.9992n 
    1.90000m    1.9000m  260.9049n 
    2.00000m    2.0000m  260.8106n 
    2.10000m    2.1000m  260.7162n 
    2.20000m    2.2000m  260.6219n 
    2.30000m    2.3000m  260.5275n 
    2.40000m    2.4000m  260.4332n 
    2.50000m    2.5000m  260.3388n 
    2.60000m    2.6000m  260.2444n 
    2.70000m    2.7000m  260.1500n 
    2.80000m    2.8000m  260.0556n 
    2.90000m    2.9000m  259.9612n 
    3.00000m    3.0000m  259.8668n 
    3.10000m    3.1000m  259.7724n 
    3.20000m    3.2000m  259.6779n 
    3.30000m    3.3000m  259.5835n 
    3.40000m    3.4000m  259.4890n 
    3.50000m    3.5000m  259.3946n 
    3.60000m    3.6000m  259.3001n 
    3.70000m    3.7000m  259.2056n 
    3.80000m    3.8000m  259.1111n 
    3.90000m    3.9000m  259.0166n 
    4.00000m    4.0000m  258.9221n 
    4.10000m    4.1000m  258.8276n 
    4.20000m    4.2000m  258.7331n 
    4.30000m    4.3000m  258.6386n 
    4.40000m    4.4000m  258.5440n 
    4.50000m    4.5000m  258.4495n 
    4.60000m    4.6000m  258.3549n 
    4.70000m    4.7000m  258.2604n 
    4.80000m    4.8000m  258.1658n 
    4.90000m    4.9000m  258.0712n 
    5.00000m    5.0000m  257.9766n 
    5.10000m    5.1000m  257.8821n 
    5.20000m    5.2000m  257.7875n 
    5.30000m    5.3000m  257.6928n 
    5.40000m    5.4000m  257.5982n 
    5.50000m    5.5000m  257.5036n 
    5.60000m    5.6000m  257.4090n 
    5.70000m    5.7000m  257.3143n 
    5.80000m    5.8000m  257.2197n 
    5.90000m    5.9000m  257.1250n 
    6.00000m    6.0000m  257.0303n 
    6.10000m    6.1000m  256.9357n 
    6.20000m    6.2000m  256.8410n 
    6.30000m    6.3000m  256.7463n 
    6.40000m    6.4000m  256.6516n 
    6.50000m    6.5000m  256.5569n 
    6.60000m    6.6000m  256.4622n 
    6.70000m    6.7000m  256.3674n 
    6.80000m    6.8000m  256.2727n 
    6.90000m    6.9000m  256.1780n 
    7.00000m    7.0000m  256.0832n 
    7.10000m    7.1000m  255.9885n 
    7.20000m    7.2000m  255.8937n 
    7.30000m    7.3000m  255.7989n 
    7.40000m    7.4000m  255.7041n 
    7.50000m    7.5000m  255.6093n 
    7.60000m    7.6000m  255.5145n 
    7.70000m    7.7000m  255.4197n 
    7.80000m    7.8000m  255.3249n 
    7.90000m    7.9000m  255.2301n 
    8.00000m    8.0000m  255.1353n 
    8.10000m    8.1000m  255.0405n 
    8.20000m    8.2000m  254.9456n 
    8.30000m    8.3000m  254.8508n 
    8.40000m    8.4000m  254.7559n 
    8.50000m    8.5000m  254.6610n 
    8.60000m    8.6000m  254.5662n 
    8.70000m    8.7000m  254.4713n 
    8.80000m    8.8000m  254.3764n 
    8.90000m    8.9000m  254.2815n 
    9.00000m    9.0000m  254.1866n 
    9.10000m    9.1000m  254.0917n 
    9.20000m    9.2000m  253.9968n 
    9.30000m    9.3000m  253.9018n 
    9.40000m    9.4000m  253.8069n 
    9.50000m    9.5000m  253.7119n 
    9.60000m    9.6000m  253.6170n 
    9.70000m    9.7000m  253.5220n 
    9.80000m    9.8000m  253.4271n 
    9.90000m    9.9000m  253.3321n 
   10.00000m   10.0000m  253.2371n 
   10.10000m   10.1000m  253.1421n 
   10.20000m   10.2000m  253.0471n 
   10.30000m   10.3000m  252.9521n 
   10.40000m   10.4000m  252.8571n 
   10.50000m   10.5000m  252.7621n 
   10.60000m   10.6000m  252.6671n 
   10.70000m   10.7000m  252.5721n 
   10.80000m   10.8000m  252.4770n 
   10.90000m   10.9000m  252.3820n 
   11.00000m   11.0000m  252.2869n 
   11.10000m   11.1000m  252.1919n 
   11.20000m   11.2000m  252.0968n 
   11.30000m   11.3000m  252.0017n 
   11.40000m   11.4000m  251.9066n 
   11.50000m   11.5000m  251.8115n 
   11.60000m   11.6000m  251.7164n 
   11.70000m   11.7000m  251.6213n 
   11.80000m   11.8000m  251.5262n 
   11.90000m   11.9000m  251.4311n 
   12.00000m   12.0000m  251.3360n 
   12.10000m   12.1000m  251.2408n 
   12.20000m   12.2000m  251.1457n 
   12.30000m   12.3000m  251.0506n 
   12.40000m   12.4000m  250.9554n 
   12.50000m   12.5000m  250.8602n 
   12.60000m   12.6000m  250.7651n 
   12.70000m   12.7000m  250.6699n 
   12.80000m   12.8000m  250.5747n 
   12.90000m   12.9000m  250.4795n 
   13.00000m   13.0000m  250.3843n 
   13.10000m   13.1000m  250.2891n 
   13.20000m   13.2000m  250.1939n 
   13.30000m   13.3000m  250.0987n 
   13.40000m   13.4000m  250.0035n 
   13.50000m   13.5000m  249.9082n 
   13.60000m   13.6000m  249.8130n 
   13.70000m   13.7000m  249.7177n 
   13.80000m   13.8000m  249.6225n 
   13.90000m   13.9000m  249.5272n 
   14.00000m   14.0000m  249.4320n 
   14.10000m   14.1000m  249.3367n 
   14.20000m   14.2000m  249.2414n 
   14.30000m   14.3000m  249.1461n 
   14.40000m   14.4000m  249.0508n 
   14.50000m   14.5000m  248.9555n 
   14.60000m   14.6000m  248.8602n 
   14.70000m   14.7000m  248.7649n 
   14.80000m   14.8000m  248.6696n 
   14.90000m   14.9000m  248.5743n 
   15.00000m   15.0000m  248.4789n 
   15.10000m   15.1000m  248.3836n 
   15.20000m   15.2000m  248.2883n 
   15.30000m   15.3000m  248.1929n 
   15.40000m   15.4000m  248.0975n 
   15.50000m   15.5000m  248.0022n 
   15.60000m   15.6000m  247.9068n 
   15.70000m   15.7000m  247.8114n 
   15.80000m   15.8000m  247.7160n 
   15.90000m   15.9000m  247.6206n 
   16.00000m   16.0000m  247.5252n 
   16.10000m   16.1000m  247.4298n 
   16.20000m   16.2000m  247.3344n 
   16.30000m   16.3000m  247.2390n 
   16.40000m   16.4000m  247.1436n 
   16.50000m   16.5000m  247.0482n 
   16.60000m   16.6000m  246.9527n 
   16.70000m   16.7000m  246.8573n 
   16.80000m   16.8000m  246.7618n 
   16.90000m   16.9000m  246.6664n 
   17.00000m   17.0000m  246.5709n 
   17.10000m   17.1000m  246.4754n 
   17.20000m   17.2000m  246.3800n 
   17.30000m   17.3000m  246.2845n 
   17.40000m   17.4000m  246.1890n 
   17.50000m   17.5000m  246.0935n 
   17.60000m   17.6000m  245.9980n 
   17.70000m   17.7000m  245.9025n 
   17.80000m   17.8000m  245.8070n 
   17.90000m   17.9000m  245.7115n 
   18.00000m   18.0000m  245.6159n 
   18.10000m   18.1000m  245.5204n 
   18.20000m   18.2000m  245.4249n 
   18.30000m   18.3000m  245.3293n 
   18.40000m   18.4000m  245.2338n 
   18.50000m   18.5000m  245.1382n 
   18.60000m   18.6000m  245.0427n 
   18.70000m   18.7000m  244.9471n 
   18.80000m   18.8000m  244.8515n 
   18.90000m   18.9000m  244.7559n 
   19.00000m   19.0000m  244.6603n 
   19.10000m   19.1000m  244.5648n 
   19.20000m   19.2000m  244.4692n 
   19.30000m   19.3000m  244.3736n 
   19.40000m   19.4000m  244.2779n 
   19.50000m   19.5000m  244.1823n 
   19.60000m   19.6000m  244.0867n 
   19.70000m   19.7000m  243.9911n 
   19.80000m   19.8000m  243.8955n 
   19.90000m   19.9000m  243.7998n 
   20.00000m   20.0000m  243.7042n 
   20.10000m   20.1000m  243.6085n 
   20.20000m   20.2000m  243.5129n 
   20.30000m   20.3000m  243.4172n 
   20.40000m   20.4000m  243.3215n 
   20.50000m   20.5000m  243.2259n 
   20.60000m   20.6000m  243.1302n 
   20.70000m   20.7000m  243.0345n 
   20.80000m   20.8000m  242.9388n 
   20.90000m   20.9000m  242.8431n 
   21.00000m   21.0000m  242.7474n 
   21.10000m   21.1000m  242.6517n 
   21.20000m   21.2000m  242.5560n 
   21.30000m   21.3000m  242.4603n 
   21.40000m   21.4000m  242.3646n 
   21.50000m   21.5000m  242.2688n 
   21.60000m   21.6000m  242.1731n 
   21.70000m   21.7000m  242.0773n 
   21.80000m   21.8000m  241.9816n 
   21.90000m   21.9000m  241.8859n 
   22.00000m   22.0000m  241.7901n 
   22.10000m   22.1000m  241.6943n 
   22.20000m   22.2000m  241.5986n 
   22.30000m   22.3000m  241.5028n 
   22.40000m   22.4000m  241.4070n 
   22.50000m   22.5000m  241.3112n 
   22.60000m   22.6000m  241.2154n 
   22.70000m   22.7000m  241.1196n 
   22.80000m   22.8000m  241.0239n 
   22.90000m   22.9000m  240.9280n 
   23.00000m   23.0000m  240.8322n 
   23.10000m   23.1000m  240.7364n 
   23.20000m   23.2000m  240.6406n 
   23.30000m   23.3000m  240.5448n 
   23.40000m   23.4000m  240.4489n 
   23.50000m   23.5000m  240.3531n 
   23.60000m   23.6000m  240.2573n 
   23.70000m   23.7000m  240.1614n 
   23.80000m   23.8000m  240.0656n 
   23.90000m   23.9000m  239.9697n 
   24.00000m   24.0000m  239.8738n 
   24.10000m   24.1000m  239.7780n 
   24.20000m   24.2000m  239.6821n 
   24.30000m   24.3000m  239.5862n 
   24.40000m   24.4000m  239.4904n 
   24.50000m   24.5000m  239.3945n 
   24.60000m   24.6000m  239.2986n 
   24.70000m   24.7000m  239.2027n 
   24.80000m   24.8000m  239.1068n 
   24.90000m   24.9000m  239.0109n 
   25.00000m   25.0000m  238.9150n 
   25.10000m   25.1000m  238.8190n 
   25.20000m   25.2000m  238.7231n 
   25.30000m   25.3000m  238.6272n 
   25.40000m   25.4000m  238.5313n 
   25.50000m   25.5000m  238.4353n 
   25.60000m   25.6000m  238.3394n 
   25.70000m   25.7000m  238.2434n 
   25.80000m   25.8000m  238.1475n 
   25.90000m   25.9000m  238.0515n 
   26.00000m   26.0000m  237.9556n 
   26.10000m   26.1000m  237.8596n 
   26.20000m   26.2000m  237.7636n 
   26.30000m   26.3000m  237.6677n 
   26.40000m   26.4000m  237.5717n 
   26.50000m   26.5000m  237.4757n 
   26.60000m   26.6000m  237.3797n 
   26.70000m   26.7000m  237.2837n 
   26.80000m   26.8000m  237.1877n 
   26.90000m   26.9000m  237.0917n 
   27.00000m   27.0000m  236.9957n 
   27.10000m   27.1000m  236.8997n 
   27.20000m   27.2000m  236.8037n 
   27.30000m   27.3000m  236.7077n 
   27.40000m   27.4000m  236.6116n 
   27.50000m   27.5000m  236.5156n 
   27.60000m   27.6000m  236.4196n 
   27.70000m   27.7000m  236.3235n 
   27.80000m   27.8000m  236.2275n 
   27.90000m   27.9000m  236.1314n 
   28.00000m   28.0000m  236.0354n 
   28.10000m   28.1000m  235.9393n 
   28.20000m   28.2000m  235.8433n 
   28.30000m   28.3000m  235.7472n 
   28.40000m   28.4000m  235.6512n 
   28.50000m   28.5000m  235.5551n 
   28.60000m   28.6000m  235.4590n 
   28.70000m   28.7000m  235.3629n 
   28.80000m   28.8000m  235.2668n 
   28.90000m   28.9000m  235.1707n 
   29.00000m   29.0000m  235.0746n 
   29.10000m   29.1000m  234.9786n 
   29.20000m   29.2000m  234.8824n 
   29.30000m   29.3000m  234.7863n 
   29.40000m   29.4000m  234.6902n 
   29.50000m   29.5000m  234.5941n 
   29.60000m   29.6000m  234.4980n 
   29.70000m   29.7000m  234.4019n 
   29.80000m   29.8000m  234.3057n 
   29.90000m   29.9000m  234.2096n 
   30.00000m   30.0000m  234.1135n 
   30.10000m   30.1000m  234.0173n 
   30.20000m   30.2000m  233.9212n 
   30.30000m   30.3000m  233.8250n 
   30.40000m   30.4000m  233.7289n 
   30.50000m   30.5000m  233.6327n 
   30.60000m   30.6000m  233.5366n 
   30.70000m   30.7000m  233.4404n 
   30.80000m   30.8000m  233.3443n 
   30.90000m   30.9000m  233.2481n 
   31.00000m   31.0000m  233.1519n 
   31.10000m   31.1000m  233.0557n 
   31.20000m   31.2000m  232.9595n 
   31.30000m   31.3000m  232.8634n 
   31.40000m   31.4000m  232.7672n 
   31.50000m   31.5000m  232.6710n 
   31.60000m   31.6000m  232.5748n 
   31.70000m   31.7000m  232.4786n 
   31.80000m   31.8000m  232.3824n 
   31.90000m   31.9000m  232.2862n 
   32.00000m   32.0000m  232.1900n 
   32.10000m   32.1000m  232.0937n 
   32.20000m   32.2000m  231.9975n 
   32.30000m   32.3000m  231.9013n 
   32.40000m   32.4000m  231.8051n 
   32.50000m   32.5000m  231.7088n 
   32.60000m   32.6000m  231.6126n 
   32.70000m   32.7000m  231.5164n 
   32.80000m   32.8000m  231.4201n 
   32.90000m   32.9000m  231.3239n 
   33.00000m   33.0000m  231.2276n 
   33.10000m   33.1000m  231.1314n 
   33.20000m   33.2000m  231.0351n 
   33.30000m   33.3000m  230.9389n 
   33.40000m   33.4000m  230.8426n 
   33.50000m   33.5000m  230.7463n 
   33.60000m   33.6000m  230.6501n 
   33.70000m   33.7000m  230.5538n 
   33.80000m   33.8000m  230.4575n 
   33.90000m   33.9000m  230.3613n 
   34.00000m   34.0000m  230.2650n 
   34.10000m   34.1000m  230.1687n 
   34.20000m   34.2000m  230.0724n 
   34.30000m   34.3000m  229.9761n 
   34.40000m   34.4000m  229.8798n 
   34.50000m   34.5000m  229.7835n 
   34.60000m   34.6000m  229.6872n 
   34.70000m   34.7000m  229.5909n 
   34.80000m   34.8000m  229.4946n 
   34.90000m   34.9000m  229.3983n 
   35.00000m   35.0000m  229.3020n 
   35.10000m   35.1000m  229.2057n 
   35.20000m   35.2000m  229.1093n 
   35.30000m   35.3000m  229.0130n 
   35.40000m   35.4000m  228.9167n 
   35.50000m   35.5000m  228.8204n 
   35.60000m   35.6000m  228.7240n 
   35.70000m   35.7000m  228.6277n 
   35.80000m   35.8000m  228.5314n 
   35.90000m   35.9000m  228.4350n 
   36.00000m   36.0000m  228.3387n 
   36.10000m   36.1000m  228.2423n 
   36.20000m   36.2000m  228.1460n 
   36.30000m   36.3000m  228.0496n 
   36.40000m   36.4000m  227.9533n 
   36.50000m   36.5000m  227.8569n 
   36.60000m   36.6000m  227.7606n 
   36.70000m   36.7000m  227.6642n 
   36.80000m   36.8000m  227.5678n 
   36.90000m   36.9000m  227.4715n 
   37.00000m   37.0000m  227.3751n 
   37.10000m   37.1000m  227.2787n 
   37.20000m   37.2000m  227.1823n 
   37.30000m   37.3000m  227.0860n 
   37.40000m   37.4000m  226.9896n 
   37.50000m   37.5000m  226.8932n 
   37.60000m   37.6000m  226.7968n 
   37.70000m   37.7000m  226.7004n 
   37.80000m   37.8000m  226.6040n 
   37.90000m   37.9000m  226.5076n 
   38.00000m   38.0000m  226.4112n 
   38.10000m   38.1000m  226.3148n 
   38.20000m   38.2000m  226.2184n 
   38.30000m   38.3000m  226.1220n 
   38.40000m   38.4000m  226.0256n 
   38.50000m   38.5000m  225.9292n 
   38.60000m   38.6000m  225.8328n 
   38.70000m   38.7000m  225.7364n 
   38.80000m   38.8000m  225.6400n 
   38.90000m   38.9000m  225.5435n 
   39.00000m   39.0000m  225.4471n 
   39.10000m   39.1000m  225.3507n 
   39.20000m   39.2000m  225.2543n 
   39.30000m   39.3000m  225.1578n 
   39.40000m   39.4000m  225.0614n 
   39.50000m   39.5000m  224.9650n 
   39.60000m   39.6000m  224.8685n 
   39.70000m   39.7000m  224.7721n 
   39.80000m   39.8000m  224.6756n 
   39.90000m   39.9000m  224.5792n 
   40.00000m   40.0000m  224.4828n 
   40.10000m   40.1000m  224.3863n 
   40.20000m   40.2000m  224.2899n 
   40.30000m   40.3000m  224.1934n 
   40.40000m   40.4000m  224.0970n 
   40.50000m   40.5000m  224.0005n 
   40.60000m   40.6000m  223.9040n 
   40.70000m   40.7000m  223.8076n 
   40.80000m   40.8000m  223.7111n 
   40.90000m   40.9000m  223.6147n 
   41.00000m   41.0000m  223.5182n 
   41.10000m   41.1000m  223.4217n 
   41.20000m   41.2000m  223.3252n 
   41.30000m   41.3000m  223.2288n 
   41.40000m   41.4000m  223.1323n 
   41.50000m   41.5000m  223.0358n 
   41.60000m   41.6000m  222.9393n 
   41.70000m   41.7000m  222.8429n 
   41.80000m   41.8000m  222.7464n 
   41.90000m   41.9000m  222.6499n 
   42.00000m   42.0000m  222.5534n 
   42.10000m   42.1000m  222.4569n 
   42.20000m   42.2000m  222.3604n 
   42.30000m   42.3000m  222.2640n 
   42.40000m   42.4000m  222.1675n 
   42.50000m   42.5000m  222.0710n 
   42.60000m   42.6000m  221.9745n 
   42.70000m   42.7000m  221.8780n 
   42.80000m   42.8000m  221.7815n 
   42.90000m   42.9000m  221.6850n 
   43.00000m   43.0000m  221.5885n 
   43.10000m   43.1000m  221.4920n 
   43.20000m   43.2000m  221.3955n 
   43.30000m   43.3000m  221.2990n 
   43.40000m   43.4000m  221.2025n 
   43.50000m   43.5000m  221.1059n 
   43.60000m   43.6000m  221.0094n 
   43.70000m   43.7000m  220.9129n 
   43.80000m   43.8000m  220.8164n 
   43.90000m   43.9000m  220.7199n 
   44.00000m   44.0000m  220.6234n 
   44.10000m   44.1000m  220.5269n 
   44.20000m   44.2000m  220.4303n 
   44.30000m   44.3000m  220.3338n 
   44.40000m   44.4000m  220.2373n 
   44.50000m   44.5000m  220.1408n 
   44.60000m   44.6000m  220.0442n 
   44.70000m   44.7000m  219.9477n 
   44.80000m   44.8000m  219.8512n 
   44.90000m   44.9000m  219.7547n 
   45.00000m   45.0000m  219.6581n 
   45.10000m   45.1000m  219.5616n 
   45.20000m   45.2000m  219.4651n 
   45.30000m   45.3000m  219.3685n 
   45.40000m   45.4000m  219.2720n 
   45.50000m   45.5000m  219.1755n 
   45.60000m   45.6000m  219.0789n 
   45.70000m   45.7000m  218.9824n 
   45.80000m   45.8000m  218.8858n 
   45.90000m   45.9000m  218.7893n 
   46.00000m   46.0000m  218.6928n 
   46.10000m   46.1000m  218.5962n 
   46.20000m   46.2000m  218.4997n 
   46.30000m   46.3000m  218.4031n 
   46.40000m   46.4000m  218.3066n 
   46.50000m   46.5000m  218.2100n 
   46.60000m   46.6000m  218.1135n 
   46.70000m   46.7000m  218.0170n 
   46.80000m   46.8000m  217.9204n 
   46.90000m   46.9000m  217.8239n 
   47.00000m   47.0000m  217.7273n 
   47.10000m   47.1000m  217.6308n 
   47.20000m   47.2000m  217.5342n 
   47.30000m   47.3000m  217.4376n 
   47.40000m   47.4000m  217.3411n 
   47.50000m   47.5000m  217.2445n 
   47.60000m   47.6000m  217.1480n 
   47.70000m   47.7000m  217.0514n 
   47.80000m   47.8000m  216.9549n 
   47.90000m   47.9000m  216.8583n 
   48.00000m   48.0000m  216.7618n 
   48.10000m   48.1000m  216.6652n 
   48.20000m   48.2000m  216.5686n 
   48.30000m   48.3000m  216.4721n 
   48.40000m   48.4000m  216.3755n 
   48.50000m   48.5000m  216.2790n 
   48.60000m   48.6000m  216.1824n 
   48.70000m   48.7000m  216.0858n 
   48.80000m   48.8000m  215.9893n 
   48.90000m   48.9000m  215.8927n 
   49.00000m   49.0000m  215.7961n 
   49.10000m   49.1000m  215.6996n 
   49.20000m   49.2000m  215.6030n 
   49.30000m   49.3000m  215.5065n 
   49.40000m   49.4000m  215.4099n 
   49.50000m   49.5000m  215.3133n 
   49.60000m   49.6000m  215.2168n 
   49.70000m   49.7000m  215.1202n 
   49.80000m   49.8000m  215.0236n 
   49.90000m   49.9000m  214.9271n 
   50.00000m   50.0000m  214.8305n 
   50.10000m   50.1000m  214.7339n 
   50.20000m   50.2000m  214.6374n 
   50.30000m   50.3000m  214.5408n 
   50.40000m   50.4000m  214.4442n 
   50.50000m   50.5000m  214.3477n 
   50.60000m   50.6000m  214.2511n 
   50.70000m   50.7000m  214.1545n 
   50.80000m   50.8000m  214.0580n 
   50.90000m   50.9000m  213.9614n 
   51.00000m   51.0000m  213.8648n 
   51.10000m   51.1000m  213.7682n 
   51.20000m   51.2000m  213.6717n 
   51.30000m   51.3000m  213.5751n 
   51.40000m   51.4000m  213.4785n 
   51.50000m   51.5000m  213.3820n 
   51.60000m   51.6000m  213.2854n 
   51.70000m   51.7000m  213.1888n 
   51.80000m   51.8000m  213.0923n 
   51.90000m   51.9000m  212.9957n 
   52.00000m   52.0000m  212.8991n 
   52.10000m   52.1000m  212.8026n 
   52.20000m   52.2000m  212.7060n 
   52.30000m   52.3000m  212.6094n 
   52.40000m   52.4000m  212.5129n 
   52.50000m   52.5000m  212.4163n 
   52.60000m   52.6000m  212.3197n 
   52.70000m   52.7000m  212.2232n 
   52.80000m   52.8000m  212.1266n 
   52.90000m   52.9000m  212.0300n 
   53.00000m   53.0000m  211.9335n 
   53.10000m   53.1000m  211.8369n 
   53.20000m   53.2000m  211.7403n 
   53.30000m   53.3000m  211.6438n 
   53.40000m   53.4000m  211.5472n 
   53.50000m   53.5000m  211.4506n 
   53.60000m   53.6000m  211.3541n 
   53.70000m   53.7000m  211.2575n 
   53.80000m   53.8000m  211.1610n 
   53.90000m   53.9000m  211.0644n 
   54.00000m   54.0000m  210.9678n 
   54.10000m   54.1000m  210.8713n 
   54.20000m   54.2000m  210.7747n 
   54.30000m   54.3000m  210.6782n 
   54.40000m   54.4000m  210.5816n 
   54.50000m   54.5000m  210.4850n 
   54.60000m   54.6000m  210.3885n 
   54.70000m   54.7000m  210.2919n 
   54.80000m   54.8000m  210.1954n 
   54.90000m   54.9000m  210.0988n 
   55.00000m   55.0000m  210.0023n 
   55.10000m   55.1000m  209.9057n 
   55.20000m   55.2000m  209.8092n 
   55.30000m   55.3000m  209.7126n 
   55.40000m   55.4000m  209.6160n 
   55.50000m   55.5000m  209.5195n 
   55.60000m   55.6000m  209.4229n 
   55.70000m   55.7000m  209.3264n 
   55.80000m   55.8000m  209.2299n 
   55.90000m   55.9000m  209.1333n 
   56.00000m   56.0000m  209.0368n 
   56.10000m   56.1000m  208.9402n 
   56.20000m   56.2000m  208.8437n 
   56.30000m   56.3000m  208.7471n 
   56.40000m   56.4000m  208.6506n 
   56.50000m   56.5000m  208.5540n 
   56.60000m   56.6000m  208.4575n 
   56.70000m   56.7000m  208.3610n 
   56.80000m   56.8000m  208.2644n 
   56.90000m   56.9000m  208.1679n 
   57.00000m   57.0000m  208.0714n 
   57.10000m   57.1000m  207.9748n 
   57.20000m   57.2000m  207.8783n 
   57.30000m   57.3000m  207.7818n 
   57.40000m   57.4000m  207.6852n 
   57.50000m   57.5000m  207.5887n 
   57.60000m   57.6000m  207.4922n 
   57.70000m   57.7000m  207.3956n 
   57.80000m   57.8000m  207.2991n 
   57.90000m   57.9000m  207.2026n 
   58.00000m   58.0000m  207.1061n 
   58.10000m   58.1000m  207.0095n 
   58.20000m   58.2000m  206.9130n 
   58.30000m   58.3000m  206.8165n 
   58.40000m   58.4000m  206.7200n 
   58.50000m   58.5000m  206.6235n 
   58.60000m   58.6000m  206.5269n 
   58.70000m   58.7000m  206.4304n 
   58.80000m   58.8000m  206.3339n 
   58.90000m   58.9000m  206.2374n 
   59.00000m   59.0000m  206.1409n 
   59.10000m   59.1000m  206.0444n 
   59.20000m   59.2000m  205.9479n 
   59.30000m   59.3000m  205.8514n 
   59.40000m   59.4000m  205.7549n 
   59.50000m   59.5000m  205.6584n 
   59.60000m   59.6000m  205.5619n 
   59.70000m   59.7000m  205.4654n 
   59.80000m   59.8000m  205.3689n 
   59.90000m   59.9000m  205.2724n 
   60.00000m   60.0000m  205.1759n 
   60.10000m   60.1000m  205.0794n 
   60.20000m   60.2000m  204.9829n 
   60.30000m   60.3000m  204.8864n 
   60.40000m   60.4000m  204.7899n 
   60.50000m   60.5000m  204.6935n 
   60.60000m   60.6000m  204.5970n 
   60.70000m   60.7000m  204.5005n 
   60.80000m   60.8000m  204.4040n 
   60.90000m   60.9000m  204.3075n 
   61.00000m   61.0000m  204.2111n 
   61.10000m   61.1000m  204.1146n 
   61.20000m   61.2000m  204.0181n 
   61.30000m   61.3000m  203.9217n 
   61.40000m   61.4000m  203.8252n 
   61.50000m   61.5000m  203.7287n 
   61.60000m   61.6000m  203.6323n 
   61.70000m   61.7000m  203.5358n 
   61.80000m   61.8000m  203.4393n 
   61.90000m   61.9000m  203.3429n 
   62.00000m   62.0000m  203.2464n 
   62.10000m   62.1000m  203.1500n 
   62.20000m   62.2000m  203.0535n 
   62.30000m   62.3000m  202.9571n 
   62.40000m   62.4000m  202.8606n 
   62.50000m   62.5000m  202.7642n 
   62.60000m   62.6000m  202.6678n 
   62.70000m   62.7000m  202.5713n 
   62.80000m   62.8000m  202.4749n 
   62.90000m   62.9000m  202.3784n 
   63.00000m   63.0000m  202.2820n 
   63.10000m   63.1000m  202.1856n 
   63.20000m   63.2000m  202.0892n 
   63.30000m   63.3000m  201.9927n 
   63.40000m   63.4000m  201.8963n 
   63.50000m   63.5000m  201.7999n 
   63.60000m   63.6000m  201.7035n 
   63.70000m   63.7000m  201.6071n 
   63.80000m   63.8000m  201.5106n 
   63.90000m   63.9000m  201.4142n 
   64.00000m   64.0000m  201.3178n 
   64.10000m   64.1000m  201.2214n 
   64.20000m   64.2000m  201.1250n 
   64.30000m   64.3000m  201.0286n 
   64.40000m   64.4000m  200.9322n 
   64.50000m   64.5000m  200.8358n 
   64.60000m   64.6000m  200.7394n 
   64.70000m   64.7000m  200.6431n 
   64.80000m   64.8000m  200.5467n 
   64.90000m   64.9000m  200.4503n 
   65.00000m   65.0000m  200.3539n 
   65.10000m   65.1000m  200.2575n 
   65.20000m   65.2000m  200.1612n 
   65.30000m   65.3000m  200.0648n 
   65.40000m   65.4000m  199.9684n 
   65.50000m   65.5000m  199.8720n 
   65.60000m   65.6000m  199.7757n 
   65.70000m   65.7000m  199.6793n 
   65.80000m   65.8000m  199.5830n 
   65.90000m   65.9000m  199.4866n 
   66.00000m   66.0000m  199.3903n 
   66.10000m   66.1000m  199.2939n 
   66.20000m   66.2000m  199.1976n 
   66.30000m   66.3000m  199.1012n 
   66.40000m   66.4000m  199.0049n 
   66.50000m   66.5000m  198.9085n 
   66.60000m   66.6000m  198.8122n 
   66.70000m   66.7000m  198.7159n 
   66.80000m   66.8000m  198.6195n 
   66.90000m   66.9000m  198.5232n 
   67.00000m   67.0000m  198.4269n 
   67.10000m   67.1000m  198.3306n 
   67.20000m   67.2000m  198.2343n 
   67.30000m   67.3000m  198.1379n 
   67.40000m   67.4000m  198.0416n 
   67.50000m   67.5000m  197.9453n 
   67.60000m   67.6000m  197.8490n 
   67.70000m   67.7000m  197.7527n 
   67.80000m   67.8000m  197.6564n 
   67.90000m   67.9000m  197.5601n 
   68.00000m   68.0000m  197.4639n 
   68.10000m   68.1000m  197.3676n 
   68.20000m   68.2000m  197.2713n 
   68.30000m   68.3000m  197.1750n 
   68.40000m   68.4000m  197.0787n 
   68.50000m   68.5000m  196.9825n 
   68.60000m   68.6000m  196.8862n 
   68.70000m   68.7000m  196.7899n 
   68.80000m   68.8000m  196.6937n 
   68.90000m   68.9000m  196.5974n 
   69.00000m   69.0000m  196.5012n 
   69.10000m   69.1000m  196.4049n 
   69.20000m   69.2000m  196.3087n 
   69.30000m   69.3000m  196.2124n 
   69.40000m   69.4000m  196.1162n 
   69.50000m   69.5000m  196.0199n 
   69.60000m   69.6000m  195.9237n 
   69.70000m   69.7000m  195.8275n 
   69.80000m   69.8000m  195.7312n 
   69.90000m   69.9000m  195.6350n 
   70.00000m   70.0000m  195.5388n 
   70.10000m   70.1000m  195.4426n 
   70.20000m   70.2000m  195.3464n 
   70.30000m   70.3000m  195.2502n 
   70.40000m   70.4000m  195.1540n 
   70.50000m   70.5000m  195.0578n 
   70.60000m   70.6000m  194.9616n 
   70.70000m   70.7000m  194.8654n 
   70.80000m   70.8000m  194.7692n 
   70.90000m   70.9000m  194.6730n 
   71.00000m   71.0000m  194.5768n 
   71.10000m   71.1000m  194.4807n 
   71.20000m   71.2000m  194.3845n 
   71.30000m   71.3000m  194.2883n 
   71.40000m   71.4000m  194.1922n 
   71.50000m   71.5000m  194.0960n 
   71.60000m   71.6000m  193.9999n 
   71.70000m   71.7000m  193.9037n 
   71.80000m   71.8000m  193.8076n 
   71.90000m   71.9000m  193.7114n 
   72.00000m   72.0000m  193.6153n 
   72.10000m   72.1000m  193.5191n 
   72.20000m   72.2000m  193.4230n 
   72.30000m   72.3000m  193.3269n 
   72.40000m   72.4000m  193.2308n 
   72.50000m   72.5000m  193.1347n 
   72.60000m   72.6000m  193.0385n 
   72.70000m   72.7000m  192.9424n 
   72.80000m   72.8000m  192.8463n 
   72.90000m   72.9000m  192.7502n 
   73.00000m   73.0000m  192.6541n 
   73.10000m   73.1000m  192.5580n 
   73.20000m   73.2000m  192.4620n 
   73.30000m   73.3000m  192.3659n 
   73.40000m   73.4000m  192.2698n 
   73.50000m   73.5000m  192.1737n 
   73.60000m   73.6000m  192.0777n 
   73.70000m   73.7000m  191.9816n 
   73.80000m   73.8000m  191.8855n 
   73.90000m   73.9000m  191.7895n 
   74.00000m   74.0000m  191.6934n 
   74.10000m   74.1000m  191.5974n 
   74.20000m   74.2000m  191.5013n 
   74.30000m   74.3000m  191.4053n 
   74.40000m   74.4000m  191.3093n 
   74.50000m   74.5000m  191.2132n 
   74.60000m   74.6000m  191.1172n 
   74.70000m   74.7000m  191.0212n 
   74.80000m   74.8000m  190.9252n 
   74.90000m   74.9000m  190.8292n 
   75.00000m   75.0000m  190.7332n 
   75.10000m   75.1000m  190.6372n 
   75.20000m   75.2000m  190.5412n 
   75.30000m   75.3000m  190.4452n 
   75.40000m   75.4000m  190.3492n 
   75.50000m   75.5000m  190.2532n 
   75.60000m   75.6000m  190.1573n 
   75.70000m   75.7000m  190.0613n 
   75.80000m   75.8000m  189.9653n 
   75.90000m   75.9000m  189.8694n 
   76.00000m   76.0000m  189.7734n 
   76.10000m   76.1000m  189.6775n 
   76.20000m   76.2000m  189.5815n 
   76.30000m   76.3000m  189.4856n 
   76.40000m   76.4000m  189.3897n 
   76.50000m   76.5000m  189.2937n 
   76.60000m   76.6000m  189.1978n 
   76.70000m   76.7000m  189.1019n 
   76.80000m   76.8000m  189.0060n 
   76.90000m   76.9000m  188.9101n 
   77.00000m   77.0000m  188.8142n 
   77.10000m   77.1000m  188.7183n 
   77.20000m   77.2000m  188.6224n 
   77.30000m   77.3000m  188.5265n 
   77.40000m   77.4000m  188.4306n 
   77.50000m   77.5000m  188.3347n 
   77.60000m   77.6000m  188.2389n 
   77.70000m   77.7000m  188.1430n 
   77.80000m   77.8000m  188.0471n 
   77.90000m   77.9000m  187.9513n 
   78.00000m   78.0000m  187.8554n 
   78.10000m   78.1000m  187.7596n 
   78.20000m   78.2000m  187.6637n 
   78.30000m   78.3000m  187.5679n 
   78.40000m   78.4000m  187.4721n 
   78.50000m   78.5000m  187.3763n 
   78.60000m   78.6000m  187.2804n 
   78.70000m   78.7000m  187.1846n 
   78.80000m   78.8000m  187.0888n 
   78.90000m   78.9000m  186.9930n 
   79.00000m   79.0000m  186.8972n 
   79.10000m   79.1000m  186.8014n 
   79.20000m   79.2000m  186.7057n 
   79.30000m   79.3000m  186.6099n 
   79.40000m   79.4000m  186.5141n 
   79.50000m   79.5000m  186.4183n 
   79.60000m   79.6000m  186.3226n 
   79.70000m   79.7000m  186.2268n 
   79.80000m   79.8000m  186.1311n 
   79.90000m   79.9000m  186.0353n 
   80.00000m   80.0000m  185.9396n 
   80.10000m   80.1000m  185.8439n 
   80.20000m   80.2000m  185.7481n 
   80.30000m   80.3000m  185.6524n 
   80.40000m   80.4000m  185.5567n 
   80.50000m   80.5000m  185.4610n 
   80.60000m   80.6000m  185.3653n 
   80.70000m   80.7000m  185.2696n 
   80.80000m   80.8000m  185.1739n 
   80.90000m   80.9000m  185.0782n 
   81.00000m   81.0000m  184.9826n 
   81.10000m   81.1000m  184.8869n 
   81.20000m   81.2000m  184.7912n 
   81.30000m   81.3000m  184.6956n 
   81.40000m   81.4000m  184.5999n 
   81.50000m   81.5000m  184.5043n 
   81.60000m   81.6000m  184.4086n 
   81.70000m   81.7000m  184.3130n 
   81.80000m   81.8000m  184.2174n 
   81.90000m   81.9000m  184.1217n 
   82.00000m   82.0000m  184.0261n 
   82.10000m   82.1000m  183.9305n 
   82.20000m   82.2000m  183.8349n 
   82.30000m   82.3000m  183.7393n 
   82.40000m   82.4000m  183.6437n 
   82.50000m   82.5000m  183.5481n 
   82.60000m   82.6000m  183.4526n 
   82.70000m   82.7000m  183.3570n 
   82.80000m   82.8000m  183.2614n 
   82.90000m   82.9000m  183.1659n 
   83.00000m   83.0000m  183.0703n 
   83.10000m   83.1000m  182.9748n 
   83.20000m   83.2000m  182.8792n 
   83.30000m   83.3000m  182.7837n 
   83.40000m   83.4000m  182.6882n 
   83.50000m   83.5000m  182.5927n 
   83.60000m   83.6000m  182.4972n 
   83.70000m   83.7000m  182.4017n 
   83.80000m   83.8000m  182.3062n 
   83.90000m   83.9000m  182.2107n 
   84.00000m   84.0000m  182.1152n 
   84.10000m   84.1000m  182.0197n 
   84.20000m   84.2000m  181.9242n 
   84.30000m   84.3000m  181.8288n 
   84.40000m   84.4000m  181.7333n 
   84.50000m   84.5000m  181.6378n 
   84.60000m   84.6000m  181.5424n 
   84.70000m   84.7000m  181.4470n 
   84.80000m   84.8000m  181.3515n 
   84.90000m   84.9000m  181.2561n 
   85.00000m   85.0000m  181.1607n 
   85.10000m   85.1000m  181.0653n 
   85.20000m   85.2000m  180.9699n 
   85.30000m   85.3000m  180.8745n 
   85.40000m   85.4000m  180.7791n 
   85.50000m   85.5000m  180.6837n 
   85.60000m   85.6000m  180.5883n 
   85.70000m   85.7000m  180.4930n 
   85.80000m   85.8000m  180.3976n 
   85.90000m   85.9000m  180.3022n 
   86.00000m   86.0000m  180.2069n 
   86.10000m   86.1000m  180.1116n 
   86.20000m   86.2000m  180.0162n 
   86.30000m   86.3000m  179.9209n 
   86.40000m   86.4000m  179.8256n 
   86.50000m   86.5000m  179.7303n 
   86.60000m   86.6000m  179.6350n 
   86.70000m   86.7000m  179.5397n 
   86.80000m   86.8000m  179.4444n 
   86.90000m   86.9000m  179.3491n 
   87.00000m   87.0000m  179.2538n 
   87.10000m   87.1000m  179.1586n 
   87.20000m   87.2000m  179.0633n 
   87.30000m   87.3000m  178.9680n 
   87.40000m   87.4000m  178.8728n 
   87.50000m   87.5000m  178.7776n 
   87.60000m   87.6000m  178.6823n 
   87.70000m   87.7000m  178.5871n 
   87.80000m   87.8000m  178.4919n 
   87.90000m   87.9000m  178.3967n 
   88.00000m   88.0000m  178.3015n 
   88.10000m   88.1000m  178.2063n 
   88.20000m   88.2000m  178.1111n 
   88.30000m   88.3000m  178.0159n 
   88.40000m   88.4000m  177.9208n 
   88.50000m   88.5000m  177.8256n 
   88.60000m   88.6000m  177.7304n 
   88.70000m   88.7000m  177.6353n 
   88.80000m   88.8000m  177.5401n 
   88.90000m   88.9000m  177.4450n 
   89.00000m   89.0000m  177.3499n 
   89.10000m   89.1000m  177.2548n 
   89.20000m   89.2000m  177.1597n 
   89.30000m   89.3000m  177.0646n 
   89.40000m   89.4000m  176.9695n 
   89.50000m   89.5000m  176.8744n 
   89.60000m   89.6000m  176.7793n 
   89.70000m   89.7000m  176.6842n 
   89.80000m   89.8000m  176.5892n 
   89.90000m   89.9000m  176.4941n 
   90.00000m   90.0000m  176.3991n 
   90.10000m   90.1000m  176.3040n 
   90.20000m   90.2000m  176.2090n 
   90.30000m   90.3000m  176.1140n 
   90.40000m   90.4000m  176.0190n 
   90.50000m   90.5000m  175.9240n 
   90.60000m   90.6000m  175.8290n 
   90.70000m   90.7000m  175.7340n 
   90.80000m   90.8000m  175.6390n 
   90.90000m   90.9000m  175.5440n 
   91.00000m   91.0000m  175.4491n 
   91.10000m   91.1000m  175.3541n 
   91.20000m   91.2000m  175.2592n 
   91.30000m   91.3000m  175.1642n 
   91.40000m   91.4000m  175.0693n 
   91.50000m   91.5000m  174.9744n 
   91.60000m   91.6000m  174.8794n 
   91.70000m   91.7000m  174.7845n 
   91.80000m   91.8000m  174.6896n 
   91.90000m   91.9000m  174.5948n 
   92.00000m   92.0000m  174.4999n 
   92.10000m   92.1000m  174.4050n 
   92.20000m   92.2000m  174.3101n 
   92.30000m   92.3000m  174.2153n 
   92.40000m   92.4000m  174.1204n 
   92.50000m   92.5000m  174.0256n 
   92.60000m   92.6000m  173.9308n 
   92.70000m   92.7000m  173.8359n 
   92.80000m   92.8000m  173.7411n 
   92.90000m   92.9000m  173.6463n 
   93.00000m   93.0000m  173.5515n 
   93.10000m   93.1000m  173.4567n 
   93.20000m   93.2000m  173.3619n 
   93.30000m   93.3000m  173.2672n 
   93.40000m   93.4000m  173.1724n 
   93.50000m   93.5000m  173.0777n 
   93.60000m   93.6000m  172.9829n 
   93.70000m   93.7000m  172.8882n 
   93.80000m   93.8000m  172.7935n 
   93.90000m   93.9000m  172.6987n 
   94.00000m   94.0000m  172.6040n 
   94.10000m   94.1000m  172.5093n 
   94.20000m   94.2000m  172.4146n 
   94.30000m   94.3000m  172.3199n 
   94.40000m   94.4000m  172.2253n 
   94.50000m   94.5000m  172.1306n 
   94.60000m   94.6000m  172.0360n 
   94.70000m   94.7000m  171.9413n 
   94.80000m   94.8000m  171.8467n 
   94.90000m   94.9000m  171.7520n 
   95.00000m   95.0000m  171.6574n 
   95.10000m   95.1000m  171.5628n 
   95.20000m   95.2000m  171.4682n 
   95.30000m   95.3000m  171.3736n 
   95.40000m   95.4000m  171.2790n 
   95.50000m   95.5000m  171.1844n 
   95.60000m   95.6000m  171.0899n 
   95.70000m   95.7000m  170.9953n 
   95.80000m   95.8000m  170.9008n 
   95.90000m   95.9000m  170.8062n 
   96.00000m   96.0000m  170.7117n 
   96.10000m   96.1000m  170.6172n 
   96.20000m   96.2000m  170.5227n 
   96.30000m   96.3000m  170.4282n 
   96.40000m   96.4000m  170.3337n 
   96.50000m   96.5000m  170.2392n 
   96.60000m   96.6000m  170.1447n 
   96.70000m   96.7000m  170.0503n 
   96.80000m   96.8000m  169.9558n 
   96.90000m   96.9000m  169.8614n 
   97.00000m   97.0000m  169.7669n 
   97.10000m   97.1000m  169.6725n 
   97.20000m   97.2000m  169.5781n 
   97.30000m   97.3000m  169.4837n 
   97.40000m   97.4000m  169.3893n 
   97.50000m   97.5000m  169.2949n 
   97.60000m   97.6000m  169.2005n 
   97.70000m   97.7000m  169.1061n 
   97.80000m   97.8000m  169.0118n 
   97.90000m   97.9000m  168.9174n 
   98.00000m   98.0000m  168.8231n 
   98.10000m   98.1000m  168.7288n 
   98.20000m   98.2000m  168.6344n 
   98.30000m   98.3000m  168.5401n 
   98.40000m   98.4000m  168.4458n 
   98.50000m   98.5000m  168.3515n 
   98.60000m   98.6000m  168.2573n 
   98.70000m   98.7000m  168.1630n 
   98.80000m   98.8000m  168.0687n 
   98.90000m   98.9000m  167.9745n 
   99.00000m   99.0000m  167.8802n 
   99.10000m   99.1000m  167.7860n 
   99.20000m   99.2000m  167.6918n 
   99.30000m   99.3000m  167.5976n 
   99.40000m   99.4000m  167.5034n 
   99.50000m   99.5000m  167.4092n 
   99.60000m   99.6000m  167.3150n 
   99.70000m   99.7000m  167.2208n 
   99.80000m   99.8000m  167.1267n 
   99.90000m   99.9000m  167.0325n 
  100.00000m  100.0000m  166.9384n 
  100.10000m  100.1000m  166.8442n 
  100.20000m  100.2000m  166.7501n 
  100.30000m  100.3000m  166.6560n 
  100.40000m  100.4000m  166.5619n 
  100.50000m  100.5000m  166.4678n 
  100.60000m  100.6000m  166.3737n 
  100.70000m  100.7000m  166.2797n 
  100.80000m  100.8000m  166.1856n 
  100.90000m  100.9000m  166.0915n 
  101.00000m  101.0000m  165.9975n 
  101.10000m  101.1000m  165.9035n 
  101.20000m  101.2000m  165.8095n 
  101.30000m  101.3000m  165.7154n 
  101.40000m  101.4000m  165.6214n 
  101.50000m  101.5000m  165.5275n 
  101.60000m  101.6000m  165.4335n 
  101.70000m  101.7000m  165.3395n 
  101.80000m  101.8000m  165.2456n 
  101.90000m  101.9000m  165.1516n 
  102.00000m  102.0000m  165.0577n 
  102.10000m  102.1000m  164.9637n 
  102.20000m  102.2000m  164.8698n 
  102.30000m  102.3000m  164.7759n 
  102.40000m  102.4000m  164.6820n 
  102.50000m  102.5000m  164.5882n 
  102.60000m  102.6000m  164.4943n 
  102.70000m  102.7000m  164.4004n 
  102.80000m  102.8000m  164.3066n 
  102.90000m  102.9000m  164.2127n 
  103.00000m  103.0000m  164.1189n 
  103.10000m  103.1000m  164.0251n 
  103.20000m  103.2000m  163.9313n 
  103.30000m  103.3000m  163.8375n 
  103.40000m  103.4000m  163.7437n 
  103.50000m  103.5000m  163.6499n 
  103.60000m  103.6000m  163.5562n 
  103.70000m  103.7000m  163.4624n 
  103.80000m  103.8000m  163.3687n 
  103.90000m  103.9000m  163.2749n 
  104.00000m  104.0000m  163.1812n 
  104.10000m  104.1000m  163.0875n 
  104.20000m  104.2000m  162.9938n 
  104.30000m  104.3000m  162.9001n 
  104.40000m  104.4000m  162.8064n 
  104.50000m  104.5000m  162.7128n 
  104.60000m  104.6000m  162.6191n 
  104.70000m  104.7000m  162.5255n 
  104.80000m  104.8000m  162.4318n 
  104.90000m  104.9000m  162.3382n 
  105.00000m  105.0000m  162.2446n 
  105.10000m  105.1000m  162.1510n 
  105.20000m  105.2000m  162.0574n 
  105.30000m  105.3000m  161.9638n 
  105.40000m  105.4000m  161.8703n 
  105.50000m  105.5000m  161.7767n 
  105.60000m  105.6000m  161.6832n 
  105.70000m  105.7000m  161.5896n 
  105.80000m  105.8000m  161.4961n 
  105.90000m  105.9000m  161.4026n 
  106.00000m  106.0000m  161.3091n 
  106.10000m  106.1000m  161.2156n 
  106.20000m  106.2000m  161.1222n 
  106.30000m  106.3000m  161.0287n 
  106.40000m  106.4000m  160.9352n 
  106.50000m  106.5000m  160.8418n 
  106.60000m  106.6000m  160.7484n 
  106.70000m  106.7000m  160.6550n 
  106.80000m  106.8000m  160.5615n 
  106.90000m  106.9000m  160.4682n 
  107.00000m  107.0000m  160.3748n 
  107.10000m  107.1000m  160.2814n 
  107.20000m  107.2000m  160.1880n 
  107.30000m  107.3000m  160.0947n 
  107.40000m  107.4000m  160.0014n 
  107.50000m  107.5000m  159.9080n 
  107.60000m  107.6000m  159.8147n 
  107.70000m  107.7000m  159.7214n 
  107.80000m  107.8000m  159.6281n 
  107.90000m  107.9000m  159.5349n 
  108.00000m  108.0000m  159.4416n 
  108.10000m  108.1000m  159.3483n 
  108.20000m  108.2000m  159.2551n 
  108.30000m  108.3000m  159.1619n 
  108.40000m  108.4000m  159.0686n 
  108.50000m  108.5000m  158.9754n 
  108.60000m  108.6000m  158.8822n 
  108.70000m  108.7000m  158.7891n 
  108.80000m  108.8000m  158.6959n 
  108.90000m  108.9000m  158.6027n 
  109.00000m  109.0000m  158.5096n 
  109.10000m  109.1000m  158.4165n 
  109.20000m  109.2000m  158.3233n 
  109.30000m  109.3000m  158.2302n 
  109.40000m  109.4000m  158.1371n 
  109.50000m  109.5000m  158.0440n 
  109.60000m  109.6000m  157.9510n 
  109.70000m  109.7000m  157.8579n 
  109.80000m  109.8000m  157.7649n 
  109.90000m  109.9000m  157.6718n 
  110.00000m  110.0000m  157.5788n 
  110.10000m  110.1000m  157.4858n 
  110.20000m  110.2000m  157.3928n 
  110.30000m  110.3000m  157.2998n 
  110.40000m  110.4000m  157.2068n 
  110.50000m  110.5000m  157.1139n 
  110.60000m  110.6000m  157.0209n 
  110.70000m  110.7000m  156.9280n 
  110.80000m  110.8000m  156.8350n 
  110.90000m  110.9000m  156.7421n 
  111.00000m  111.0000m  156.6492n 
  111.10000m  111.1000m  156.5563n 
  111.20000m  111.2000m  156.4635n 
  111.30000m  111.3000m  156.3706n 
  111.40000m  111.4000m  156.2777n 
  111.50000m  111.5000m  156.1849n 
  111.60000m  111.6000m  156.0921n 
  111.70000m  111.7000m  155.9993n 
  111.80000m  111.8000m  155.9065n 
  111.90000m  111.9000m  155.8137n 
  112.00000m  112.0000m  155.7209n 
  112.10000m  112.1000m  155.6281n 
  112.20000m  112.2000m  155.5354n 
  112.30000m  112.3000m  155.4427n 
  112.40000m  112.4000m  155.3499n 
  112.50000m  112.5000m  155.2572n 
  112.60000m  112.6000m  155.1645n 
  112.70000m  112.7000m  155.0718n 
  112.80000m  112.8000m  154.9792n 
  112.90000m  112.9000m  154.8865n 
  113.00000m  113.0000m  154.7939n 
  113.10000m  113.1000m  154.7012n 
  113.20000m  113.2000m  154.6086n 
  113.30000m  113.3000m  154.5160n 
  113.40000m  113.4000m  154.4234n 
  113.50000m  113.5000m  154.3308n 
  113.60000m  113.6000m  154.2382n 
  113.70000m  113.7000m  154.1457n 
  113.80000m  113.8000m  154.0531n 
  113.90000m  113.9000m  153.9606n 
  114.00000m  114.0000m  153.8681n 
  114.10000m  114.1000m  153.7756n 
  114.20000m  114.2000m  153.6831n 
  114.30000m  114.3000m  153.5906n 
  114.40000m  114.4000m  153.4981n 
  114.50000m  114.5000m  153.4057n 
  114.60000m  114.6000m  153.3133n 
  114.70000m  114.7000m  153.2208n 
  114.80000m  114.8000m  153.1284n 
  114.90000m  114.9000m  153.0360n 
  115.00000m  115.0000m  152.9436n 
  115.10000m  115.1000m  152.8513n 
  115.20000m  115.2000m  152.7589n 
  115.30000m  115.3000m  152.6666n 
  115.40000m  115.4000m  152.5742n 
  115.50000m  115.5000m  152.4819n 
  115.60000m  115.6000m  152.3896n 
  115.70000m  115.7000m  152.2973n 
  115.80000m  115.8000m  152.2050n 
  115.90000m  115.9000m  152.1128n 
  116.00000m  116.0000m  152.0205n 
  116.10000m  116.1000m  151.9283n 
  116.20000m  116.2000m  151.8361n 
  116.30000m  116.3000m  151.7438n 
  116.40000m  116.4000m  151.6516n 
  116.50000m  116.5000m  151.5595n 
  116.60000m  116.6000m  151.4673n 
  116.70000m  116.7000m  151.3751n 
  116.80000m  116.8000m  151.2830n 
  116.90000m  116.9000m  151.1909n 
  117.00000m  117.0000m  151.0988n 
  117.10000m  117.1000m  151.0067n 
  117.20000m  117.2000m  150.9146n 
  117.30000m  117.3000m  150.8225n 
  117.40000m  117.4000m  150.7304n 
  117.50000m  117.5000m  150.6384n 
  117.60000m  117.6000m  150.5464n 
  117.70000m  117.7000m  150.4543n 
  117.80000m  117.8000m  150.3623n 
  117.90000m  117.9000m  150.2703n 
  118.00000m  118.0000m  150.1784n 
  118.10000m  118.1000m  150.0864n 
  118.20000m  118.2000m  149.9945n 
  118.30000m  118.3000m  149.9025n 
  118.40000m  118.4000m  149.8106n 
  118.50000m  118.5000m  149.7187n 
  118.60000m  118.6000m  149.6268n 
  118.70000m  118.7000m  149.5349n 
  118.80000m  118.8000m  149.4431n 
  118.90000m  118.9000m  149.3512n 
  119.00000m  119.0000m  149.2594n 
  119.10000m  119.1000m  149.1675n 
  119.20000m  119.2000m  149.0757n 
  119.30000m  119.3000m  148.9839n 
  119.40000m  119.4000m  148.8922n 
  119.50000m  119.5000m  148.8004n 
  119.60000m  119.6000m  148.7087n 
  119.70000m  119.7000m  148.6169n 
  119.80000m  119.8000m  148.5252n 
  119.90000m  119.9000m  148.4335n 
  120.00000m  120.0000m  148.3418n 
  120.10000m  120.1000m  148.2501n 
  120.20000m  120.2000m  148.1585n 
  120.30000m  120.3000m  148.0668n 
  120.40000m  120.4000m  147.9752n 
  120.50000m  120.5000m  147.8835n 
  120.60000m  120.6000m  147.7919n 
  120.70000m  120.7000m  147.7003n 
  120.80000m  120.8000m  147.6088n 
  120.90000m  120.9000m  147.5172n 
  121.00000m  121.0000m  147.4257n 
  121.10000m  121.1000m  147.3341n 
  121.20000m  121.2000m  147.2426n 
  121.30000m  121.3000m  147.1511n 
  121.40000m  121.4000m  147.0596n 
  121.50000m  121.5000m  146.9681n 
  121.60000m  121.6000m  146.8767n 
  121.70000m  121.7000m  146.7852n 
  121.80000m  121.8000m  146.6938n 
  121.90000m  121.9000m  146.6024n 
  122.00000m  122.0000m  146.5110n 
  122.10000m  122.1000m  146.4196n 
  122.20000m  122.2000m  146.3282n 
  122.30000m  122.3000m  146.2369n 
  122.40000m  122.4000m  146.1455n 
  122.50000m  122.5000m  146.0542n 
  122.60000m  122.6000m  145.9629n 
  122.70000m  122.7000m  145.8716n 
  122.80000m  122.8000m  145.7803n 
  122.90000m  122.9000m  145.6890n 
  123.00000m  123.0000m  145.5978n 
  123.10000m  123.1000m  145.5066n 
  123.20000m  123.2000m  145.4153n 
  123.30000m  123.3000m  145.3241n 
  123.40000m  123.4000m  145.2329n 
  123.50000m  123.5000m  145.1418n 
  123.60000m  123.6000m  145.0506n 
  123.70000m  123.7000m  144.9595n 
  123.80000m  123.8000m  144.8683n 
  123.90000m  123.9000m  144.7772n 
  124.00000m  124.0000m  144.6861n 
  124.10000m  124.1000m  144.5950n 
  124.20000m  124.2000m  144.5039n 
  124.30000m  124.3000m  144.4129n 
  124.40000m  124.4000m  144.3219n 
  124.50000m  124.5000m  144.2308n 
  124.60000m  124.6000m  144.1398n 
  124.70000m  124.7000m  144.0488n 
  124.80000m  124.8000m  143.9578n 
  124.90000m  124.9000m  143.8669n 
  125.00000m  125.0000m  143.7759n 
  125.10000m  125.1000m  143.6850n 
  125.20000m  125.2000m  143.5941n 
  125.30000m  125.3000m  143.5032n 
  125.40000m  125.4000m  143.4123n 
  125.50000m  125.5000m  143.3214n 
  125.60000m  125.6000m  143.2306n 
  125.70000m  125.7000m  143.1397n 
  125.80000m  125.8000m  143.0489n 
  125.90000m  125.9000m  142.9581n 
  126.00000m  126.0000m  142.8673n 
  126.10000m  126.1000m  142.7765n 
  126.20000m  126.2000m  142.6858n 
  126.30000m  126.3000m  142.5950n 
  126.40000m  126.4000m  142.5043n 
  126.50000m  126.5000m  142.4136n 
  126.60000m  126.6000m  142.3229n 
  126.70000m  126.7000m  142.2322n 
  126.80000m  126.8000m  142.1416n 
  126.90000m  126.9000m  142.0509n 
  127.00000m  127.0000m  141.9603n 
  127.10000m  127.1000m  141.8697n 
  127.20000m  127.2000m  141.7791n 
  127.30000m  127.3000m  141.6885n 
  127.40000m  127.4000m  141.5979n 
  127.50000m  127.5000m  141.5073n 
  127.60000m  127.6000m  141.4168n 
  127.70000m  127.7000m  141.3263n 
  127.80000m  127.8000m  141.2358n 
  127.90000m  127.9000m  141.1453n 
  128.00000m  128.0000m  141.0548n 
  128.10000m  128.1000m  140.9644n 
  128.20000m  128.2000m  140.8739n 
  128.30000m  128.3000m  140.7835n 
  128.40000m  128.4000m  140.6931n 
  128.50000m  128.5000m  140.6027n 
  128.60000m  128.6000m  140.5123n 
  128.70000m  128.7000m  140.4219n 
  128.80000m  128.8000m  140.3316n 
  128.90000m  128.9000m  140.2413n 
  129.00000m  129.0000m  140.1510n 
  129.10000m  129.1000m  140.0607n 
  129.20000m  129.2000m  139.9704n 
  129.30000m  129.3000m  139.8801n 
  129.40000m  129.4000m  139.7899n 
  129.50000m  129.5000m  139.6996n 
  129.60000m  129.6000m  139.6094n 
  129.70000m  129.7000m  139.5192n 
  129.80000m  129.8000m  139.4290n 
  129.90000m  129.9000m  139.3389n 
  130.00000m  130.0000m  139.2487n 
  130.10000m  130.1000m  139.1586n 
  130.20000m  130.2000m  139.0685n 
  130.30000m  130.3000m  138.9784n 
  130.40000m  130.4000m  138.8883n 
  130.50000m  130.5000m  138.7982n 
  130.60000m  130.6000m  138.7082n 
  130.70000m  130.7000m  138.6182n 
  130.80000m  130.8000m  138.5281n 
  130.90000m  130.9000m  138.4381n 
  131.00000m  131.0000m  138.3482n 
  131.10000m  131.1000m  138.2582n 
  131.20000m  131.2000m  138.1682n 
  131.30000m  131.3000m  138.0783n 
  131.40000m  131.4000m  137.9884n 
  131.50000m  131.5000m  137.8985n 
  131.60000m  131.6000m  137.8086n 
  131.70000m  131.7000m  137.7188n 
  131.80000m  131.8000m  137.6289n 
  131.90000m  131.9000m  137.5391n 
  132.00000m  132.0000m  137.4493n 
  132.10000m  132.1000m  137.3595n 
  132.20000m  132.2000m  137.2697n 
  132.30000m  132.3000m  137.1799n 
  132.40000m  132.4000m  137.0902n 
  132.50000m  132.5000m  137.0004n 
  132.60000m  132.6000m  136.9107n 
  132.70000m  132.7000m  136.8210n 
  132.80000m  132.8000m  136.7314n 
  132.90000m  132.9000m  136.6417n 
  133.00000m  133.0000m  136.5521n 
  133.10000m  133.1000m  136.4624n 
  133.20000m  133.2000m  136.3728n 
  133.30000m  133.3000m  136.2832n 
  133.40000m  133.4000m  136.1937n 
  133.50000m  133.5000m  136.1041n 
  133.60000m  133.6000m  136.0146n 
  133.70000m  133.7000m  135.9250n 
  133.80000m  133.8000m  135.8355n 
  133.90000m  133.9000m  135.7460n 
  134.00000m  134.0000m  135.6566n 
  134.10000m  134.1000m  135.5671n 
  134.20000m  134.2000m  135.4777n 
  134.30000m  134.3000m  135.3883n 
  134.40000m  134.4000m  135.2989n 
  134.50000m  134.5000m  135.2095n 
  134.60000m  134.6000m  135.1201n 
  134.70000m  134.7000m  135.0308n 
  134.80000m  134.8000m  134.9414n 
  134.90000m  134.9000m  134.8521n 
  135.00000m  135.0000m  134.7628n 
  135.10000m  135.1000m  134.6735n 
  135.20000m  135.2000m  134.5843n 
  135.30000m  135.3000m  134.4950n 
  135.40000m  135.4000m  134.4058n 
  135.50000m  135.5000m  134.3166n 
  135.60000m  135.6000m  134.2274n 
  135.70000m  135.7000m  134.1382n 
  135.80000m  135.8000m  134.0491n 
  135.90000m  135.9000m  133.9599n 
  136.00000m  136.0000m  133.8708n 
  136.10000m  136.1000m  133.7817n 
  136.20000m  136.2000m  133.6926n 
  136.30000m  136.3000m  133.6036n 
  136.40000m  136.4000m  133.5145n 
  136.50000m  136.5000m  133.4255n 
  136.60000m  136.6000m  133.3365n 
  136.70000m  136.7000m  133.2475n 
  136.80000m  136.8000m  133.1585n 
  136.90000m  136.9000m  133.0695n 
  137.00000m  137.0000m  132.9806n 
  137.10000m  137.1000m  132.8917n 
  137.20000m  137.2000m  132.8028n 
  137.30000m  137.3000m  132.7139n 
  137.40000m  137.4000m  132.6250n 
  137.50000m  137.5000m  132.5362n 
  137.60000m  137.6000m  132.4473n 
  137.70000m  137.7000m  132.3585n 
  137.80000m  137.8000m  132.2697n 
  137.90000m  137.9000m  132.1809n 
  138.00000m  138.0000m  132.0922n 
  138.10000m  138.1000m  132.0034n 
  138.20000m  138.2000m  131.9147n 
  138.30000m  138.3000m  131.8260n 
  138.40000m  138.4000m  131.7373n 
  138.50000m  138.5000m  131.6486n 
  138.60000m  138.6000m  131.5600n 
  138.70000m  138.7000m  131.4714n 
  138.80000m  138.8000m  131.3828n 
  138.90000m  138.9000m  131.2942n 
  139.00000m  139.0000m  131.2056n 
  139.10000m  139.1000m  131.1170n 
  139.20000m  139.2000m  131.0285n 
  139.30000m  139.3000m  130.9400n 
  139.40000m  139.4000m  130.8515n 
  139.50000m  139.5000m  130.7630n 
  139.60000m  139.6000m  130.6745n 
  139.70000m  139.7000m  130.5860n 
  139.80000m  139.8000m  130.4976n 
  139.90000m  139.9000m  130.4092n 
  140.00000m  140.0000m  130.3208n 
  140.10000m  140.1000m  130.2324n 
  140.20000m  140.2000m  130.1441n 
  140.30000m  140.3000m  130.0557n 
  140.40000m  140.4000m  129.9674n 
  140.50000m  140.5000m  129.8791n 
  140.60000m  140.6000m  129.7908n 
  140.70000m  140.7000m  129.7026n 
  140.80000m  140.8000m  129.6143n 
  140.90000m  140.9000m  129.5261n 
  141.00000m  141.0000m  129.4379n 
  141.10000m  141.1000m  129.3497n 
  141.20000m  141.2000m  129.2616n 
  141.30000m  141.3000m  129.1734n 
  141.40000m  141.4000m  129.0853n 
  141.50000m  141.5000m  128.9972n 
  141.60000m  141.6000m  128.9091n 
  141.70000m  141.7000m  128.8210n 
  141.80000m  141.8000m  128.7329n 
  141.90000m  141.9000m  128.6449n 
  142.00000m  142.0000m  128.5569n 
  142.10000m  142.1000m  128.4689n 
  142.20000m  142.2000m  128.3809n 
  142.30000m  142.3000m  128.2930n 
  142.40000m  142.4000m  128.2050n 
  142.50000m  142.5000m  128.1171n 
  142.60000m  142.6000m  128.0292n 
  142.70000m  142.7000m  127.9413n 
  142.80000m  142.8000m  127.8534n 
  142.90000m  142.9000m  127.7656n 
  143.00000m  143.0000m  127.6778n 
  143.10000m  143.1000m  127.5900n 
  143.20000m  143.2000m  127.5022n 
  143.30000m  143.3000m  127.4144n 
  143.40000m  143.4000m  127.3267n 
  143.50000m  143.5000m  127.2389n 
  143.60000m  143.6000m  127.1512n 
  143.70000m  143.7000m  127.0635n 
  143.80000m  143.8000m  126.9759n 
  143.90000m  143.9000m  126.8882n 
  144.00000m  144.0000m  126.8006n 
  144.10000m  144.1000m  126.7130n 
  144.20000m  144.2000m  126.6254n 
  144.30000m  144.3000m  126.5378n 
  144.40000m  144.4000m  126.4502n 
  144.50000m  144.5000m  126.3627n 
  144.60000m  144.6000m  126.2752n 
  144.70000m  144.7000m  126.1877n 
  144.80000m  144.8000m  126.1002n 
  144.90000m  144.9000m  126.0128n 
  145.00000m  145.0000m  125.9253n 
  145.10000m  145.1000m  125.8379n 
  145.20000m  145.2000m  125.7505n 
  145.30000m  145.3000m  125.6631n 
  145.40000m  145.4000m  125.5758n 
  145.50000m  145.5000m  125.4884n 
  145.60000m  145.6000m  125.4011n 
  145.70000m  145.7000m  125.3138n 
  145.80000m  145.8000m  125.2265n 
  145.90000m  145.9000m  125.1393n 
  146.00000m  146.0000m  125.0520n 
  146.10000m  146.1000m  124.9648n 
  146.20000m  146.2000m  124.8776n 
  146.30000m  146.3000m  124.7904n 
  146.40000m  146.4000m  124.7033n 
  146.50000m  146.5000m  124.6161n 
  146.60000m  146.6000m  124.5290n 
  146.70000m  146.7000m  124.4419n 
  146.80000m  146.8000m  124.3548n 
  146.90000m  146.9000m  124.2678n 
  147.00000m  147.0000m  124.1807n 
  147.10000m  147.1000m  124.0937n 
  147.20000m  147.2000m  124.0067n 
  147.30000m  147.3000m  123.9197n 
  147.40000m  147.4000m  123.8328n 
  147.50000m  147.5000m  123.7458n 
  147.60000m  147.6000m  123.6589n 
  147.70000m  147.7000m  123.5720n 
  147.80000m  147.8000m  123.4851n 
  147.90000m  147.9000m  123.3983n 
  148.00000m  148.0000m  123.3114n 
  148.10000m  148.1000m  123.2246n 
  148.20000m  148.2000m  123.1378n 
  148.30000m  148.3000m  123.0510n 
  148.40000m  148.4000m  122.9643n 
  148.50000m  148.5000m  122.8775n 
  148.60000m  148.6000m  122.7908n 
  148.70000m  148.7000m  122.7041n 
  148.80000m  148.8000m  122.6175n 
  148.90000m  148.9000m  122.5308n 
  149.00000m  149.0000m  122.4442n 
  149.10000m  149.1000m  122.3576n 
  149.20000m  149.2000m  122.2710n 
  149.30000m  149.3000m  122.1844n 
  149.40000m  149.4000m  122.0978n 
  149.50000m  149.5000m  122.0113n 
  149.60000m  149.6000m  121.9248n 
  149.70000m  149.7000m  121.8383n 
  149.80000m  149.8000m  121.7518n 
  149.90000m  149.9000m  121.6654n 
  150.00000m  150.0000m  121.5789n 
  150.10000m  150.1000m  121.4925n 
  150.20000m  150.2000m  121.4061n 
  150.30000m  150.3000m  121.3198n 
  150.40000m  150.4000m  121.2334n 
  150.50000m  150.5000m  121.1471n 
  150.60000m  150.6000m  121.0608n 
  150.70000m  150.7000m  120.9745n 
  150.80000m  150.8000m  120.8882n 
  150.90000m  150.9000m  120.8020n 
  151.00000m  151.0000m  120.7158n 
  151.10000m  151.1000m  120.6296n 
  151.20000m  151.2000m  120.5434n 
  151.30000m  151.3000m  120.4572n 
  151.40000m  151.4000m  120.3711n 
  151.50000m  151.5000m  120.2850n 
  151.60000m  151.6000m  120.1989n 
  151.70000m  151.7000m  120.1128n 
  151.80000m  151.8000m  120.0267n 
  151.90000m  151.9000m  119.9407n 
  152.00000m  152.0000m  119.8547n 
  152.10000m  152.1000m  119.7687n 
  152.20000m  152.2000m  119.6827n 
  152.30000m  152.3000m  119.5968n 
  152.40000m  152.4000m  119.5109n 
  152.50000m  152.5000m  119.4249n 
  152.60000m  152.6000m  119.3391n 
  152.70000m  152.7000m  119.2532n 
  152.80000m  152.8000m  119.1674n 
  152.90000m  152.9000m  119.0815n 
  153.00000m  153.0000m  118.9957n 
  153.10000m  153.1000m  118.9099n 
  153.20000m  153.2000m  118.8242n 
  153.30000m  153.3000m  118.7384n 
  153.40000m  153.4000m  118.6527n 
  153.50000m  153.5000m  118.5670n 
  153.60000m  153.6000m  118.4814n 
  153.70000m  153.7000m  118.3957n 
  153.80000m  153.8000m  118.3101n 
  153.90000m  153.9000m  118.2245n 
  154.00000m  154.0000m  118.1389n 
  154.10000m  154.1000m  118.0533n 
  154.20000m  154.2000m  117.9678n 
  154.30000m  154.3000m  117.8822n 
  154.40000m  154.4000m  117.7967n 
  154.50000m  154.5000m  117.7113n 
  154.60000m  154.6000m  117.6258n 
  154.70000m  154.7000m  117.5404n 
  154.80000m  154.8000m  117.4549n 
  154.90000m  154.9000m  117.3696n 
  155.00000m  155.0000m  117.2842n 
  155.10000m  155.1000m  117.1988n 
  155.20000m  155.2000m  117.1135n 
  155.30000m  155.3000m  117.0282n 
  155.40000m  155.4000m  116.9429n 
  155.50000m  155.5000m  116.8576n 
  155.60000m  155.6000m  116.7724n 
  155.70000m  155.7000m  116.6872n 
  155.80000m  155.8000m  116.6020n 
  155.90000m  155.9000m  116.5168n 
  156.00000m  156.0000m  116.4316n 
  156.10000m  156.1000m  116.3465n 
  156.20000m  156.2000m  116.2614n 
  156.30000m  156.3000m  116.1763n 
  156.40000m  156.4000m  116.0912n 
  156.50000m  156.5000m  116.0062n 
  156.60000m  156.6000m  115.9212n 
  156.70000m  156.7000m  115.8362n 
  156.80000m  156.8000m  115.7512n 
  156.90000m  156.9000m  115.6662n 
  157.00000m  157.0000m  115.5813n 
  157.10000m  157.1000m  115.4964n 
  157.20000m  157.2000m  115.4115n 
  157.30000m  157.3000m  115.3266n 
  157.40000m  157.4000m  115.2418n 
  157.50000m  157.5000m  115.1569n 
  157.60000m  157.6000m  115.0721n 
  157.70000m  157.7000m  114.9874n 
  157.80000m  157.8000m  114.9026n 
  157.90000m  157.9000m  114.8179n 
  158.00000m  158.0000m  114.7331n 
  158.10000m  158.1000m  114.6485n 
  158.20000m  158.2000m  114.5638n 
  158.30000m  158.3000m  114.4791n 
  158.40000m  158.4000m  114.3945n 
  158.50000m  158.5000m  114.3099n 
  158.60000m  158.6000m  114.2253n 
  158.70000m  158.7000m  114.1408n 
  158.80000m  158.8000m  114.0562n 
  158.90000m  158.9000m  113.9717n 
  159.00000m  159.0000m  113.8872n 
  159.10000m  159.1000m  113.8028n 
  159.20000m  159.2000m  113.7183n 
  159.30000m  159.3000m  113.6339n 
  159.40000m  159.4000m  113.5495n 
  159.50000m  159.5000m  113.4651n 
  159.60000m  159.6000m  113.3808n 
  159.70000m  159.7000m  113.2964n 
  159.80000m  159.8000m  113.2121n 
  159.90000m  159.9000m  113.1278n 
  160.00000m  160.0000m  113.0436n 
  160.10000m  160.1000m  112.9593n 
  160.20000m  160.2000m  112.8751n 
  160.30000m  160.3000m  112.7909n 
  160.40000m  160.4000m  112.7067n 
  160.50000m  160.5000m  112.6226n 
  160.60000m  160.6000m  112.5384n 
  160.70000m  160.7000m  112.4543n 
  160.80000m  160.8000m  112.3702n 
  160.90000m  160.9000m  112.2862n 
  161.00000m  161.0000m  112.2021n 
  161.10000m  161.1000m  112.1181n 
  161.20000m  161.2000m  112.0341n 
  161.30000m  161.3000m  111.9502n 
  161.40000m  161.4000m  111.8662n 
  161.50000m  161.5000m  111.7823n 
  161.60000m  161.6000m  111.6984n 
  161.70000m  161.7000m  111.6145n 
  161.80000m  161.8000m  111.5307n 
  161.90000m  161.9000m  111.4468n 
  162.00000m  162.0000m  111.3630n 
  162.10000m  162.1000m  111.2792n 
  162.20000m  162.2000m  111.1955n 
  162.30000m  162.3000m  111.1117n 
  162.40000m  162.4000m  111.0280n 
  162.50000m  162.5000m  110.9443n 
  162.60000m  162.6000m  110.8606n 
  162.70000m  162.7000m  110.7770n 
  162.80000m  162.8000m  110.6934n 
  162.90000m  162.9000m  110.6098n 
  163.00000m  163.0000m  110.5262n 
  163.10000m  163.1000m  110.4426n 
  163.20000m  163.2000m  110.3591n 
  163.30000m  163.3000m  110.2756n 
  163.40000m  163.4000m  110.1921n 
  163.50000m  163.5000m  110.1087n 
  163.60000m  163.6000m  110.0252n 
  163.70000m  163.7000m  109.9418n 
  163.80000m  163.8000m  109.8584n 
  163.90000m  163.9000m  109.7750n 
  164.00000m  164.0000m  109.6917n 
  164.10000m  164.1000m  109.6084n 
  164.20000m  164.2000m  109.5251n 
  164.30000m  164.3000m  109.4418n 
  164.40000m  164.4000m  109.3586n 
  164.50000m  164.5000m  109.2753n 
  164.60000m  164.6000m  109.1921n 
  164.70000m  164.7000m  109.1089n 
  164.80000m  164.8000m  109.0258n 
  164.90000m  164.9000m  108.9426n 
  165.00000m  165.0000m  108.8595n 
  165.10000m  165.1000m  108.7765n 
  165.20000m  165.2000m  108.6934n 
  165.30000m  165.3000m  108.6103n 
  165.40000m  165.4000m  108.5273n 
  165.50000m  165.5000m  108.4443n 
  165.60000m  165.6000m  108.3614n 
  165.70000m  165.7000m  108.2784n 
  165.80000m  165.8000m  108.1955n 
  165.90000m  165.9000m  108.1126n 
  166.00000m  166.0000m  108.0297n 
  166.10000m  166.1000m  107.9469n 
  166.20000m  166.2000m  107.8641n 
  166.30000m  166.3000m  107.7813n 
  166.40000m  166.4000m  107.6985n 
  166.50000m  166.5000m  107.6157n 
  166.60000m  166.6000m  107.5330n 
  166.70000m  166.7000m  107.4503n 
  166.80000m  166.8000m  107.3676n 
  166.90000m  166.9000m  107.2850n 
  167.00000m  167.0000m  107.2023n 
  167.10000m  167.1000m  107.1197n 
  167.20000m  167.2000m  107.0371n 
  167.30000m  167.3000m  106.9546n 
  167.40000m  167.4000m  106.8720n 
  167.50000m  167.5000m  106.7895n 
  167.60000m  167.6000m  106.7070n 
  167.70000m  167.7000m  106.6246n 
  167.80000m  167.8000m  106.5421n 
  167.90000m  167.9000m  106.4597n 
  168.00000m  168.0000m  106.3773n 
  168.10000m  168.1000m  106.2949n 
  168.20000m  168.2000m  106.2126n 
  168.30000m  168.3000m  106.1303n 
  168.40000m  168.4000m  106.0480n 
  168.50000m  168.5000m  105.9657n 
  168.60000m  168.6000m  105.8835n 
  168.70000m  168.7000m  105.8012n 
  168.80000m  168.8000m  105.7190n 
  168.90000m  168.9000m  105.6369n 
  169.00000m  169.0000m  105.5547n 
  169.10000m  169.1000m  105.4726n 
  169.20000m  169.2000m  105.3905n 
  169.30000m  169.3000m  105.3084n 
  169.40000m  169.4000m  105.2263n 
  169.50000m  169.5000m  105.1443n 
  169.60000m  169.6000m  105.0623n 
  169.70000m  169.7000m  104.9803n 
  169.80000m  169.8000m  104.8984n 
  169.90000m  169.9000m  104.8164n 
  170.00000m  170.0000m  104.7345n 
  170.10000m  170.1000m  104.6527n 
  170.20000m  170.2000m  104.5708n 
  170.30000m  170.3000m  104.4890n 
  170.40000m  170.4000m  104.4072n 
  170.50000m  170.5000m  104.3254n 
  170.60000m  170.6000m  104.2436n 
  170.70000m  170.7000m  104.1619n 
  170.80000m  170.8000m  104.0802n 
  170.90000m  170.9000m  103.9985n 
  171.00000m  171.0000m  103.9168n 
  171.10000m  171.1000m  103.8352n 
  171.20000m  171.2000m  103.7536n 
  171.30000m  171.3000m  103.6720n 
  171.40000m  171.4000m  103.5904n 
  171.50000m  171.5000m  103.5089n 
  171.60000m  171.6000m  103.4274n 
  171.70000m  171.7000m  103.3459n 
  171.80000m  171.8000m  103.2645n 
  171.90000m  171.9000m  103.1830n 
  172.00000m  172.0000m  103.1016n 
  172.10000m  172.1000m  103.0202n 
  172.20000m  172.2000m  102.9389n 
  172.30000m  172.3000m  102.8575n 
  172.40000m  172.4000m  102.7762n 
  172.50000m  172.5000m  102.6949n 
  172.60000m  172.6000m  102.6137n 
  172.70000m  172.7000m  102.5324n 
  172.80000m  172.8000m  102.4512n 
  172.90000m  172.9000m  102.3700n 
  173.00000m  173.0000m  102.2889n 
  173.10000m  173.1000m  102.2077n 
  173.20000m  173.2000m  102.1266n 
  173.30000m  173.3000m  102.0455n 
  173.40000m  173.4000m  101.9645n 
  173.50000m  173.5000m  101.8834n 
  173.60000m  173.6000m  101.8024n 
  173.70000m  173.7000m  101.7214n 
  173.80000m  173.8000m  101.6405n 
  173.90000m  173.9000m  101.5595n 
  174.00000m  174.0000m  101.4786n 
  174.10000m  174.1000m  101.3978n 
  174.20000m  174.2000m  101.3169n 
  174.30000m  174.3000m  101.2361n 
  174.40000m  174.4000m  101.1553n 
  174.50000m  174.5000m  101.0745n 
  174.60000m  174.6000m  100.9937n 
  174.70000m  174.7000m  100.9130n 
  174.80000m  174.8000m  100.8323n 
  174.90000m  174.9000m  100.7516n 
  175.00000m  175.0000m  100.6709n 
  175.10000m  175.1000m  100.5903n 
  175.20000m  175.2000m  100.5097n 
  175.30000m  175.3000m  100.4291n 
  175.40000m  175.4000m  100.3486n 
  175.50000m  175.5000m  100.2680n 
  175.60000m  175.6000m  100.1875n 
  175.70000m  175.7000m  100.1071n 
  175.80000m  175.8000m  100.0266n 
  175.90000m  175.9000m   99.9462n 
  176.00000m  176.0000m   99.8658n 
  176.10000m  176.1000m   99.7854n 
  176.20000m  176.2000m   99.7051n 
  176.30000m  176.3000m   99.6247n 
  176.40000m  176.4000m   99.5445n 
  176.50000m  176.5000m   99.4642n 
  176.60000m  176.6000m   99.3839n 
  176.70000m  176.7000m   99.3037n 
  176.80000m  176.8000m   99.2235n 
  176.90000m  176.9000m   99.1434n 
  177.00000m  177.0000m   99.0632n 
  177.10000m  177.1000m   98.9831n 
  177.20000m  177.2000m   98.9030n 
  177.30000m  177.3000m   98.8229n 
  177.40000m  177.4000m   98.7429n 
  177.50000m  177.5000m   98.6629n 
  177.60000m  177.6000m   98.5829n 
  177.70000m  177.7000m   98.5029n 
  177.80000m  177.8000m   98.4230n 
  177.90000m  177.9000m   98.3431n 
  178.00000m  178.0000m   98.2632n 
  178.10000m  178.1000m   98.1834n 
  178.20000m  178.2000m   98.1035n 
  178.30000m  178.3000m   98.0237n 
  178.40000m  178.4000m   97.9439n 
  178.50000m  178.5000m   97.8642n 
  178.60000m  178.6000m   97.7845n 
  178.70000m  178.7000m   97.7048n 
  178.80000m  178.8000m   97.6251n 
  178.90000m  178.9000m   97.5454n 
  179.00000m  179.0000m   97.4658n 
  179.10000m  179.1000m   97.3862n 
  179.20000m  179.2000m   97.3067n 
  179.30000m  179.3000m   97.2271n 
  179.40000m  179.4000m   97.1476n 
  179.50000m  179.5000m   97.0681n 
  179.60000m  179.6000m   96.9886n 
  179.70000m  179.7000m   96.9092n 
  179.80000m  179.8000m   96.8298n 
  179.90000m  179.9000m   96.7504n 
  180.00000m  180.0000m   96.6711n 
  180.10000m  180.1000m   96.5917n 
  180.20000m  180.2000m   96.5124n 
  180.30000m  180.3000m   96.4331n 
  180.40000m  180.4000m   96.3539n 
  180.50000m  180.5000m   96.2747n 
  180.60000m  180.6000m   96.1955n 
  180.70000m  180.7000m   96.1163n 
  180.80000m  180.8000m   96.0371n 
  180.90000m  180.9000m   95.9580n 
  181.00000m  181.0000m   95.8789n 
  181.10000m  181.1000m   95.7999n 
  181.20000m  181.2000m   95.7208n 
  181.30000m  181.3000m   95.6418n 
  181.40000m  181.4000m   95.5628n 
  181.50000m  181.5000m   95.4838n 
  181.60000m  181.6000m   95.4049n 
  181.70000m  181.7000m   95.3260n 
  181.80000m  181.8000m   95.2471n 
  181.90000m  181.9000m   95.1683n 
  182.00000m  182.0000m   95.0894n 
  182.10000m  182.1000m   95.0106n 
  182.20000m  182.2000m   94.9319n 
  182.30000m  182.3000m   94.8531n 
  182.40000m  182.4000m   94.7744n 
  182.50000m  182.5000m   94.6957n 
  182.60000m  182.6000m   94.6170n 
  182.70000m  182.7000m   94.5384n 
  182.80000m  182.8000m   94.4598n 
  182.90000m  182.9000m   94.3812n 
  183.00000m  183.0000m   94.3026n 
  183.10000m  183.1000m   94.2241n 
  183.20000m  183.2000m   94.1456n 
  183.30000m  183.3000m   94.0671n 
  183.40000m  183.4000m   93.9887n 
  183.50000m  183.5000m   93.9103n 
  183.60000m  183.6000m   93.8319n 
  183.70000m  183.7000m   93.7535n 
  183.80000m  183.8000m   93.6751n 
  183.90000m  183.9000m   93.5968n 
  184.00000m  184.0000m   93.5185n 
  184.10000m  184.1000m   93.4403n 
  184.20000m  184.2000m   93.3620n 
  184.30000m  184.3000m   93.2838n 
  184.40000m  184.4000m   93.2057n 
  184.50000m  184.5000m   93.1275n 
  184.60000m  184.6000m   93.0494n 
  184.70000m  184.7000m   92.9713n 
  184.80000m  184.8000m   92.8932n 
  184.90000m  184.9000m   92.8152n 
  185.00000m  185.0000m   92.7371n 
  185.10000m  185.1000m   92.6591n 
  185.20000m  185.2000m   92.5812n 
  185.30000m  185.3000m   92.5032n 
  185.40000m  185.4000m   92.4253n 
  185.50000m  185.5000m   92.3475n 
  185.60000m  185.6000m   92.2696n 
  185.70000m  185.7000m   92.1918n 
  185.80000m  185.8000m   92.1140n 
  185.90000m  185.9000m   92.0362n 
  186.00000m  186.0000m   91.9585n 
  186.10000m  186.1000m   91.8807n 
  186.20000m  186.2000m   91.8031n 
  186.30000m  186.3000m   91.7254n 
  186.40000m  186.4000m   91.6478n 
  186.50000m  186.5000m   91.5702n 
  186.60000m  186.6000m   91.4926n 
  186.70000m  186.7000m   91.4150n 
  186.80000m  186.8000m   91.3375n 
  186.90000m  186.9000m   91.2600n 
  187.00000m  187.0000m   91.1825n 
  187.10000m  187.1000m   91.1051n 
  187.20000m  187.2000m   91.0277n 
  187.30000m  187.3000m   90.9503n 
  187.40000m  187.4000m   90.8729n 
  187.50000m  187.5000m   90.7956n 
  187.60000m  187.6000m   90.7183n 
  187.70000m  187.7000m   90.6410n 
  187.80000m  187.8000m   90.5638n 
  187.90000m  187.9000m   90.4866n 
  188.00000m  188.0000m   90.4094n 
  188.10000m  188.1000m   90.3322n 
  188.20000m  188.2000m   90.2551n 
  188.30000m  188.3000m   90.1780n 
  188.40000m  188.4000m   90.1009n 
  188.50000m  188.5000m   90.0238n 
  188.60000m  188.6000m   89.9468n 
  188.70000m  188.7000m   89.8698n 
  188.80000m  188.8000m   89.7928n 
  188.90000m  188.9000m   89.7159n 
  189.00000m  189.0000m   89.6390n 
  189.10000m  189.1000m   89.5621n 
  189.20000m  189.2000m   89.4852n 
  189.30000m  189.3000m   89.4084n 
  189.40000m  189.4000m   89.3316n 
  189.50000m  189.5000m   89.2548n 
  189.60000m  189.6000m   89.1781n 
  189.70000m  189.7000m   89.1014n 
  189.80000m  189.8000m   89.0247n 
  189.90000m  189.9000m   88.9480n 
  190.00000m  190.0000m   88.8714n 
  190.10000m  190.1000m   88.7948n 
  190.20000m  190.2000m   88.7182n 
  190.30000m  190.3000m   88.6417n 
  190.40000m  190.4000m   88.5651n 
  190.50000m  190.5000m   88.4887n 
  190.60000m  190.6000m   88.4122n 
  190.70000m  190.7000m   88.3358n 
  190.80000m  190.8000m   88.2593n 
  190.90000m  190.9000m   88.1830n 
  191.00000m  191.0000m   88.1066n 
  191.10000m  191.1000m   88.0303n 
  191.20000m  191.2000m   87.9540n 
  191.30000m  191.3000m   87.8777n 
  191.40000m  191.4000m   87.8015n 
  191.50000m  191.5000m   87.7253n 
  191.60000m  191.6000m   87.6491n 
  191.70000m  191.7000m   87.5730n 
  191.80000m  191.8000m   87.4968n 
  191.90000m  191.9000m   87.4207n 
  192.00000m  192.0000m   87.3447n 
  192.10000m  192.1000m   87.2686n 
  192.20000m  192.2000m   87.1926n 
  192.30000m  192.3000m   87.1166n 
  192.40000m  192.4000m   87.0407n 
  192.50000m  192.5000m   86.9648n 
  192.60000m  192.6000m   86.8889n 
  192.70000m  192.7000m   86.8130n 
  192.80000m  192.8000m   86.7372n 
  192.90000m  192.9000m   86.6613n 
  193.00000m  193.0000m   86.5856n 
  193.10000m  193.1000m   86.5098n 
  193.20000m  193.2000m   86.4341n 
  193.30000m  193.3000m   86.3584n 
  193.40000m  193.4000m   86.2827n 
  193.50000m  193.5000m   86.2071n 
  193.60000m  193.6000m   86.1315n 
  193.70000m  193.7000m   86.0559n 
  193.80000m  193.8000m   85.9803n 
  193.90000m  193.9000m   85.9048n 
  194.00000m  194.0000m   85.8293n 
  194.10000m  194.1000m   85.7539n 
  194.20000m  194.2000m   85.6784n 
  194.30000m  194.3000m   85.6030n 
  194.40000m  194.4000m   85.5276n 
  194.50000m  194.5000m   85.4523n 
  194.60000m  194.6000m   85.3770n 
  194.70000m  194.7000m   85.3017n 
  194.80000m  194.8000m   85.2264n 
  194.90000m  194.9000m   85.1512n 
  195.00000m  195.0000m   85.0760n 
  195.10000m  195.1000m   85.0008n 
  195.20000m  195.2000m   84.9256n 
  195.30000m  195.3000m   84.8505n 
  195.40000m  195.4000m   84.7754n 
  195.50000m  195.5000m   84.7004n 
  195.60000m  195.6000m   84.6253n 
  195.70000m  195.7000m   84.5503n 
  195.80000m  195.8000m   84.4754n 
  195.90000m  195.9000m   84.4004n 
  196.00000m  196.0000m   84.3255n 
  196.10000m  196.1000m   84.2506n 
  196.20000m  196.2000m   84.1757n 
  196.30000m  196.3000m   84.1009n 
  196.40000m  196.4000m   84.0261n 
  196.50000m  196.5000m   83.9513n 
  196.60000m  196.6000m   83.8766n 
  196.70000m  196.7000m   83.8019n 
  196.80000m  196.8000m   83.7272n 
  196.90000m  196.9000m   83.6526n 
  197.00000m  197.0000m   83.5779n 
  197.10000m  197.1000m   83.5033n 
  197.20000m  197.2000m   83.4288n 
  197.30000m  197.3000m   83.3542n 
  197.40000m  197.4000m   83.2797n 
  197.50000m  197.5000m   83.2053n 
  197.60000m  197.6000m   83.1308n 
  197.70000m  197.7000m   83.0564n 
  197.80000m  197.8000m   82.9820n 
  197.90000m  197.9000m   82.9076n 
  198.00000m  198.0000m   82.8333n 
  198.10000m  198.1000m   82.7590n 
  198.20000m  198.2000m   82.6847n 
  198.30000m  198.3000m   82.6105n 
  198.40000m  198.4000m   82.5363n 
  198.50000m  198.5000m   82.4621n 
  198.60000m  198.6000m   82.3879n 
  198.70000m  198.7000m   82.3138n 
  198.80000m  198.8000m   82.2397n 
  198.90000m  198.9000m   82.1657n 
  199.00000m  199.0000m   82.0916n 
  199.10000m  199.1000m   82.0176n 
  199.20000m  199.2000m   81.9436n 
  199.30000m  199.3000m   81.8697n 
  199.40000m  199.4000m   81.7958n 
  199.50000m  199.5000m   81.7219n 
  199.60000m  199.6000m   81.6480n 
  199.70000m  199.7000m   81.5742n 
  199.80000m  199.8000m   81.5004n 
  199.90000m  199.9000m   81.4266n 
  200.00000m  200.0000m   81.3529n 
  200.10000m  200.1000m   81.2792n 
  200.20000m  200.2000m   81.2055n 
  200.30000m  200.3000m   81.1318n 
  200.40000m  200.4000m   81.0582n 
  200.50000m  200.5000m   80.9846n 
  200.60000m  200.6000m   80.9111n 
  200.70000m  200.7000m   80.8375n 
  200.80000m  200.8000m   80.7640n 
  200.90000m  200.9000m   80.6906n 
  201.00000m  201.0000m   80.6171n 
  201.10000m  201.1000m   80.5437n 
  201.20000m  201.2000m   80.4703n 
  201.30000m  201.3000m   80.3970n 
  201.40000m  201.4000m   80.3237n 
  201.50000m  201.5000m   80.2504n 
  201.60000m  201.6000m   80.1771n 
  201.70000m  201.7000m   80.1039n 
  201.80000m  201.8000m   80.0307n 
  201.90000m  201.9000m   79.9575n 
  202.00000m  202.0000m   79.8844n 
  202.10000m  202.1000m   79.8113n 
  202.20000m  202.2000m   79.7382n 
  202.30000m  202.3000m   79.6651n 
  202.40000m  202.4000m   79.5921n 
  202.50000m  202.5000m   79.5191n 
  202.60000m  202.6000m   79.4462n 
  202.70000m  202.7000m   79.3732n 
  202.80000m  202.8000m   79.3003n 
  202.90000m  202.9000m   79.2275n 
  203.00000m  203.0000m   79.1546n 
  203.10000m  203.1000m   79.0818n 
  203.20000m  203.2000m   79.0090n 
  203.30000m  203.3000m   78.9363n 
  203.40000m  203.4000m   78.8636n 
  203.50000m  203.5000m   78.7909n 
  203.60000m  203.6000m   78.7182n 
  203.70000m  203.7000m   78.6456n 
  203.80000m  203.8000m   78.5730n 
  203.90000m  203.9000m   78.5004n 
  204.00000m  204.0000m   78.4279n 
  204.10000m  204.1000m   78.3554n 
  204.20000m  204.2000m   78.2829n 
  204.30000m  204.3000m   78.2104n 
  204.40000m  204.4000m   78.1380n 
  204.50000m  204.5000m   78.0656n 
  204.60000m  204.6000m   77.9933n 
  204.70000m  204.7000m   77.9210n 
  204.80000m  204.8000m   77.8487n 
  204.90000m  204.9000m   77.7764n 
  205.00000m  205.0000m   77.7042n 
  205.10000m  205.1000m   77.6320n 
  205.20000m  205.2000m   77.5598n 
  205.30000m  205.3000m   77.4877n 
  205.40000m  205.4000m   77.4155n 
  205.50000m  205.5000m   77.3435n 
  205.60000m  205.6000m   77.2714n 
  205.70000m  205.7000m   77.1994n 
  205.80000m  205.8000m   77.1274n 
  205.90000m  205.9000m   77.0555n 
  206.00000m  206.0000m   76.9835n 
  206.10000m  206.1000m   76.9116n 
  206.20000m  206.2000m   76.8398n 
  206.30000m  206.3000m   76.7679n 
  206.40000m  206.4000m   76.6961n 
  206.50000m  206.5000m   76.6244n 
  206.60000m  206.6000m   76.5526n 
  206.70000m  206.7000m   76.4809n 
  206.80000m  206.8000m   76.4092n 
  206.90000m  206.9000m   76.3376n 
  207.00000m  207.0000m   76.2659n 
  207.10000m  207.1000m   76.1944n 
  207.20000m  207.2000m   76.1228n 
  207.30000m  207.3000m   76.0513n 
  207.40000m  207.4000m   75.9798n 
  207.50000m  207.5000m   75.9083n 
  207.60000m  207.6000m   75.8369n 
  207.70000m  207.7000m   75.7655n 
  207.80000m  207.8000m   75.6941n 
  207.90000m  207.9000m   75.6228n 
  208.00000m  208.0000m   75.5514n 
  208.10000m  208.1000m   75.4802n 
  208.20000m  208.2000m   75.4089n 
  208.30000m  208.3000m   75.3377n 
  208.40000m  208.4000m   75.2665n 
  208.50000m  208.5000m   75.1953n 
  208.60000m  208.6000m   75.1242n 
  208.70000m  208.7000m   75.0531n 
  208.80000m  208.8000m   74.9821n 
  208.90000m  208.9000m   74.9110n 
  209.00000m  209.0000m   74.8400n 
  209.10000m  209.1000m   74.7691n 
  209.20000m  209.2000m   74.6981n 
  209.30000m  209.3000m   74.6272n 
  209.40000m  209.4000m   74.5563n 
  209.50000m  209.5000m   74.4855n 
  209.60000m  209.6000m   74.4147n 
  209.70000m  209.7000m   74.3439n 
  209.80000m  209.8000m   74.2731n 
  209.90000m  209.9000m   74.2024n 
  210.00000m  210.0000m   74.1317n 
  210.10000m  210.1000m   74.0611n 
  210.20000m  210.2000m   73.9904n 
  210.30000m  210.3000m   73.9199n 
  210.40000m  210.4000m   73.8493n 
  210.50000m  210.5000m   73.7788n 
  210.60000m  210.6000m   73.7083n 
  210.70000m  210.7000m   73.6378n 
  210.80000m  210.8000m   73.5673n 
  210.90000m  210.9000m   73.4969n 
  211.00000m  211.0000m   73.4266n 
  211.10000m  211.1000m   73.3562n 
  211.20000m  211.2000m   73.2859n 
  211.30000m  211.3000m   73.2156n 
  211.40000m  211.4000m   73.1454n 
  211.50000m  211.5000m   73.0751n 
  211.60000m  211.6000m   73.0050n 
  211.70000m  211.7000m   72.9348n 
  211.80000m  211.8000m   72.8647n 
  211.90000m  211.9000m   72.7946n 
  212.00000m  212.0000m   72.7245n 
  212.10000m  212.1000m   72.6545n 
  212.20000m  212.2000m   72.5845n 
  212.30000m  212.3000m   72.5145n 
  212.40000m  212.4000m   72.4446n 
  212.50000m  212.5000m   72.3747n 
  212.60000m  212.6000m   72.3048n 
  212.70000m  212.7000m   72.2350n 
  212.80000m  212.8000m   72.1652n 
  212.90000m  212.9000m   72.0954n 
  213.00000m  213.0000m   72.0256n 
  213.10000m  213.1000m   71.9559n 
  213.20000m  213.2000m   71.8862n 
  213.30000m  213.3000m   71.8166n 
  213.40000m  213.4000m   71.7470n 
  213.50000m  213.5000m   71.6774n 
  213.60000m  213.6000m   71.6078n 
  213.70000m  213.7000m   71.5383n 
  213.80000m  213.8000m   71.4688n 
  213.90000m  213.9000m   71.3994n 
  214.00000m  214.0000m   71.3299n 
  214.10000m  214.1000m   71.2605n 
  214.20000m  214.2000m   71.1912n 
  214.30000m  214.3000m   71.1218n 
  214.40000m  214.4000m   71.0525n 
  214.50000m  214.5000m   70.9833n 
  214.60000m  214.6000m   70.9140n 
  214.70000m  214.7000m   70.8448n 
  214.80000m  214.8000m   70.7756n 
  214.90000m  214.9000m   70.7065n 
  215.00000m  215.0000m   70.6374n 
  215.10000m  215.1000m   70.5683n 
  215.20000m  215.2000m   70.4993n 
  215.30000m  215.3000m   70.4303n 
  215.40000m  215.4000m   70.3613n 
  215.50000m  215.5000m   70.2923n 
  215.60000m  215.6000m   70.2234n 
  215.70000m  215.7000m   70.1545n 
  215.80000m  215.8000m   70.0857n 
  215.90000m  215.9000m   70.0168n 
  216.00000m  216.0000m   69.9480n 
  216.10000m  216.1000m   69.8793n 
  216.20000m  216.2000m   69.8106n 
  216.30000m  216.3000m   69.7419n 
  216.40000m  216.4000m   69.6732n 
  216.50000m  216.5000m   69.6046n 
  216.60000m  216.6000m   69.5360n 
  216.70000m  216.7000m   69.4674n 
  216.80000m  216.8000m   69.3989n 
  216.90000m  216.9000m   69.3304n 
  217.00000m  217.0000m   69.2619n 
  217.10000m  217.1000m   69.1935n 
  217.20000m  217.2000m   69.1251n 
  217.30000m  217.3000m   69.0567n 
  217.40000m  217.4000m   68.9884n 
  217.50000m  217.5000m   68.9201n 
  217.60000m  217.6000m   68.8518n 
  217.70000m  217.7000m   68.7835n 
  217.80000m  217.8000m   68.7153n 
  217.90000m  217.9000m   68.6471n 
  218.00000m  218.0000m   68.5790n 
  218.10000m  218.1000m   68.5109n 
[...]
  452.10000m  452.1000m  485.2307p 
  452.20000m  452.2000m  483.5247p 
  452.30000m  452.3000m  481.8243p 
  452.40000m  452.4000m  480.1296p 
  452.50000m  452.5000m  478.4404p 
  452.60000m  452.6000m  476.7568p 
  452.70000m  452.7000m  475.0789p 
  452.80000m  452.8000m  473.4064p 
  452.90000m  452.9000m  471.7395p 
  453.00000m  453.0000m  470.0782p 
  453.10000m  453.1000m  468.4223p 
  453.20000m  453.2000m  466.7719p 
  453.30000m  453.3000m  465.1270p 
  453.40000m  453.4000m  463.4876p 
  453.50000m  453.5000m  461.8535p 
  453.60000m  453.6000m  460.2249p 
  453.70000m  453.7000m  458.6018p 
  453.80000m  453.8000m  456.9840p 
  453.90000m  453.9000m  455.3716p 
  454.00000m  454.0000m  453.7645p 
  454.10000m  454.1000m  452.1628p 
  454.20000m  454.2000m  450.5664p 
  454.30000m  454.3000m  448.9753p 
  454.40000m  454.4000m  447.3896p 
  454.50000m  454.5000m  445.8091p 
  454.60000m  454.6000m  444.2338p 
  454.70000m  454.7000m  442.6638p 
  454.80000m  454.8000m  441.0991p 
  454.90000m  454.9000m  439.5395p 
  455.00000m  455.0000m  437.9852p 
  455.10000m  455.1000m  436.4360p 
  455.20000m  455.2000m  434.8920p 
  455.30000m  455.3000m  433.3532p 
  455.40000m  455.4000m  431.8195p 
  455.50000m  455.5000m  430.2909p 
  455.60000m  455.6000m  428.7675p 
  455.70000m  455.7000m  427.2491p 
  455.80000m  455.8000m  425.7358p 
  455.90000m  455.9000m  424.2276p 
  456.00000m  456.0000m  422.7244p 
  456.10000m  456.1000m  421.2262p 
  456.20000m  456.2000m  419.7331p 
  456.30000m  456.3000m  418.2449p 
  456.40000m  456.4000m  416.7618p 
  456.50000m  456.5000m  415.2836p 
  456.60000m  456.6000m  413.8103p 
  456.70000m  456.7000m  412.3420p 
  456.80000m  456.8000m  410.8787p 
  456.90000m  456.9000m  409.4202p 
  457.00000m  457.0000m  407.9666p 
  457.10000m  457.1000m  406.5180p 
  457.20000m  457.2000m  405.0741p 
  457.30000m  457.3000m  403.6352p 
  457.40000m  457.4000m  402.2010p 
  457.50000m  457.5000m  400.7717p 
  457.60000m  457.6000m  399.3472p 
  457.70000m  457.7000m  397.9275p 
  457.80000m  457.8000m  396.5125p 
  457.90000m  457.9000m  395.1024p 
  458.00000m  458.0000m  393.6969p 
  458.10000m  458.1000m  392.2962p 
  458.20000m  458.2000m  390.9002p 
  458.30000m  458.3000m  389.5090p 
  458.40000m  458.4000m  388.1224p 
  458.50000m  458.5000m  386.7405p 
  458.60000m  458.6000m  385.3632p 
  458.70000m  458.7000m  383.9906p 
  458.80000m  458.8000m  382.6226p 
  458.90000m  458.9000m  381.2593p 
  459.00000m  459.0000m  379.9005p 
  459.10000m  459.1000m  378.5464p 
  459.20000m  459.2000m  377.1968p 
  459.30000m  459.3000m  375.8518p 
  459.40000m  459.4000m  374.5113p 
  459.50000m  459.5000m  373.1754p 
  459.60000m  459.6000m  371.8440p 
  459.70000m  459.7000m  370.5170p 
  459.80000m  459.8000m  369.1946p 
  459.90000m  459.9000m  367.8767p 
  460.00000m  460.0000m  366.5632p 
  460.10000m  460.1000m  365.2542p 
  460.20000m  460.2000m  363.9496p 
  460.30000m  460.3000m  362.6494p 
  460.40000m  460.4000m  361.3536p 
  460.50000m  460.5000m  360.0623p 
  460.60000m  460.6000m  358.7753p 
  460.70000m  460.7000m  357.4927p 
  460.80000m  460.8000m  356.2144p 
  460.90000m  460.9000m  354.9405p 
  461.00000m  461.0000m  353.6709p 
  461.10000m  461.1000m  352.4056p 
  461.20000m  461.2000m  351.1446p 
  461.30000m  461.3000m  349.8880p 
  461.40000m  461.4000m  348.6355p 
  461.50000m  461.5000m  347.3874p 
  461.60000m  461.6000m  346.1435p 
  461.70000m  461.7000m  344.9038p 
  461.80000m  461.8000m  343.6684p 
  461.90000m  461.9000m  342.4371p 
  462.00000m  462.0000m  341.2101p 
  462.10000m  462.1000m  339.9872p 
  462.20000m  462.2000m  338.7685p 
  462.30000m  462.3000m  337.5540p 
  462.40000m  462.4000m  336.3436p 
  462.50000m  462.5000m  335.1373p 
  462.60000m  462.6000m  333.9352p 
  462.70000m  462.7000m  332.7371p 
  462.80000m  462.8000m  331.5432p 
  462.90000m  462.9000m  330.3533p 
  463.00000m  463.0000m  329.1675p 
  463.10000m  463.1000m  327.9857p 
  463.20000m  463.2000m  326.8080p 
  463.30000m  463.3000m  325.6343p 
  463.40000m  463.4000m  324.4647p 
  463.50000m  463.5000m  323.2990p 
  463.60000m  463.6000m  322.1373p 
  463.70000m  463.7000m  320.9796p 
  463.80000m  463.8000m  319.8259p 
  463.90000m  463.9000m  318.6761p 
  464.00000m  464.0000m  317.5302p 
  464.10000m  464.1000m  316.3883p 
  464.20000m  464.2000m  315.2503p 
  464.30000m  464.3000m  314.1162p 
  464.40000m  464.4000m  312.9860p 
  464.50000m  464.5000m  311.8597p 
  464.60000m  464.6000m  310.7372p 
  464.70000m  464.7000m  309.6186p 
  464.80000m  464.8000m  308.5038p 
  464.90000m  464.9000m  307.3929p 
  465.00000m  465.0000m  306.2857p 
  465.10000m  465.1000m  305.1824p 
  465.20000m  465.2000m  304.0829p 
  465.30000m  465.3000m  302.9871p 
  465.40000m  465.4000m  301.8952p 
  465.50000m  465.5000m  300.8069p 
  465.60000m  465.6000m  299.7225p 
  465.70000m  465.7000m  298.6417p 
  465.80000m  465.8000m  297.5647p 
  465.90000m  465.9000m  296.4914p 
  466.00000m  466.0000m  295.4218p 
  466.10000m  466.1000m  294.3558p 
  466.20000m  466.2000m  293.2936p 
  466.30000m  466.3000m  292.2350p 
  466.40000m  466.4000m  291.1801p 
  466.50000m  466.5000m  290.1288p 
  466.60000m  466.6000m  289.0811p 
  466.70000m  466.7000m  288.0370p 
  466.80000m  466.8000m  286.9966p 
  466.90000m  466.9000m  285.9597p 
  467.00000m  467.0000m  284.9264p 
  467.10000m  467.1000m  283.8967p 
  467.20000m  467.2000m  282.8706p 
  467.30000m  467.3000m  281.8480p 
  467.40000m  467.4000m  280.8289p 
  467.50000m  467.5000m  279.8134p 
  467.60000m  467.6000m  278.8013p 
  467.70000m  467.7000m  277.7928p 
  467.80000m  467.8000m  276.7878p 
  467.90000m  467.9000m  275.7862p 
  468.00000m  468.0000m  274.7882p 
  468.10000m  468.1000m  273.7935p 
  468.20000m  468.2000m  272.8023p 
  468.30000m  468.3000m  271.8146p 
  468.40000m  468.4000m  270.8303p 
  468.50000m  468.5000m  269.8494p 
  468.60000m  468.6000m  268.8719p 
  468.70000m  468.7000m  267.8978p 
  468.80000m  468.8000m  266.9270p 
  468.90000m  468.9000m  265.9597p 
  469.00000m  469.0000m  264.9957p 
  469.10000m  469.1000m  264.0350p 
  469.20000m  469.2000m  263.0777p 
  469.30000m  469.3000m  262.1237p 
  469.40000m  469.4000m  261.1730p 
  469.50000m  469.5000m  260.2256p 
  469.60000m  469.6000m  259.2816p 
  469.70000m  469.7000m  258.3408p 
  469.80000m  469.8000m  257.4033p 
  469.90000m  469.9000m  256.4690p 
  470.00000m  470.0000m  255.5380p 
  470.10000m  470.1000m  254.6102p 
  470.20000m  470.2000m  253.6857p 
  470.30000m  470.3000m  252.7644p 
  470.40000m  470.4000m  251.8463p 
  470.50000m  470.5000m  250.9314p 
  470.60000m  470.6000m  250.0197p 
  470.70000m  470.7000m  249.1111p 
  470.80000m  470.8000m  248.2058p 
  470.90000m  470.9000m  247.3035p 
  471.00000m  471.0000m  246.4045p 
  471.10000m  471.1000m  245.5086p 
  471.20000m  471.2000m  244.6158p 
  471.30000m  471.3000m  243.7261p 
  471.40000m  471.4000m  242.8395p 
  471.50000m  471.5000m  241.9561p 
  471.60000m  471.6000m  241.0757p 
  471.70000m  471.7000m  240.1984p 
  471.80000m  471.8000m  239.3241p 
  471.90000m  471.9000m  238.4529p 
  472.00000m  472.0000m  237.5848p 
  472.10000m  472.1000m  236.7197p 
  472.20000m  472.2000m  235.8576p 
  472.30000m  472.3000m  234.9986p 
  472.40000m  472.4000m  234.1425p 
  472.50000m  472.5000m  233.2895p 
  472.60000m  472.6000m  232.4394p 
  472.70000m  472.7000m  231.5923p 
  472.80000m  472.8000m  230.7482p 
  472.90000m  472.9000m  229.9071p 
  473.00000m  473.0000m  229.0689p 
  473.10000m  473.1000m  228.2336p 
  473.20000m  473.2000m  227.4013p 
  473.30000m  473.3000m  226.5718p 
  473.40000m  473.4000m  225.7453p 
  473.50000m  473.5000m  224.9217p 
  473.60000m  473.6000m  224.1010p 
  473.70000m  473.7000m  223.2832p 
  473.80000m  473.8000m  222.4682p 
  473.90000m  473.9000m  221.6561p 
  474.00000m  474.0000m  220.8469p 
  474.10000m  474.1000m  220.0405p 
  474.20000m  474.2000m  219.2369p 
  474.30000m  474.3000m  218.4362p 
  474.40000m  474.4000m  217.6382p 
  474.50000m  474.5000m  216.8431p 
  474.60000m  474.6000m  216.0508p 
  474.70000m  474.7000m  215.2613p 
  474.80000m  474.8000m  214.4745p 
  474.90000m  474.9000m  213.6906p 
  475.00000m  475.0000m  212.9093p 
  475.10000m  475.1000m  212.1309p 
  475.20000m  475.2000m  211.3551p 
  475.30000m  475.3000m  210.5822p 
  475.40000m  475.4000m  209.8119p 
  475.50000m  475.5000m  209.0443p 
  475.60000m  475.6000m  208.2795p 
  475.70000m  475.7000m  207.5174p 
  475.80000m  475.8000m  206.7579p 
  475.90000m  475.9000m  206.0011p 
  476.00000m  476.0000m  205.2470p 
  476.10000m  476.1000m  204.4956p 
  476.20000m  476.2000m  203.7468p 
  476.30000m  476.3000m  203.0006p 
  476.40000m  476.4000m  202.2571p 
  476.50000m  476.5000m  201.5162p 
  476.60000m  476.6000m  200.7780p 
  476.70000m  476.7000m  200.0423p 
  476.80000m  476.8000m  199.3093p 
  476.90000m  476.9000m  198.5788p 
  477.00000m  477.0000m  197.8509p 
  477.10000m  477.1000m  197.1256p 
  477.20000m  477.2000m  196.4029p 
  477.30000m  477.3000m  195.6827p 
  477.40000m  477.4000m  194.9651p 
  477.50000m  477.5000m  194.2500p 
  477.60000m  477.6000m  193.5375p 
  477.70000m  477.7000m  192.8274p 
  477.80000m  477.8000m  192.1199p 
  477.90000m  477.9000m  191.4149p 
  478.00000m  478.0000m  190.7124p 
  478.10000m  478.1000m  190.0124p 
  478.20000m  478.2000m  189.3149p 
  478.30000m  478.3000m  188.6198p 
  478.40000m  478.4000m  187.9272p 
  478.50000m  478.5000m  187.2371p 
  478.60000m  478.6000m  186.5494p 
  478.70000m  478.7000m  185.8641p 
  478.80000m  478.8000m  185.1813p 
  478.90000m  478.9000m  184.5009p 
  479.00000m  479.0000m  183.8230p 
  479.10000m  479.1000m  183.1474p 
  479.20000m  479.2000m  182.4742p 
  479.30000m  479.3000m  181.8035p 
  479.40000m  479.4000m  181.1351p 
  479.50000m  479.5000m  180.4691p 
  479.60000m  479.6000m  179.8054p 
  479.70000m  479.7000m  179.1442p 
  479.80000m  479.8000m  178.4852p 
  479.90000m  479.9000m  177.8286p 
  480.00000m  480.0000m  177.1744p 
  480.10000m  480.1000m  176.5225p 
  480.20000m  480.2000m  175.8729p 
  480.30000m  480.3000m  175.2256p 
  480.40000m  480.4000m  174.5806p 
  480.50000m  480.5000m  173.9380p 
  480.60000m  480.6000m  173.2976p 
  480.70000m  480.7000m  172.6595p 
  480.80000m  480.8000m  172.0236p 
  480.90000m  480.9000m  171.3901p 
  481.00000m  481.0000m  170.7588p 
  481.10000m  481.1000m  170.1297p 
  481.20000m  481.2000m  169.5029p 
  481.30000m  481.3000m  168.8783p 
  481.40000m  481.4000m  168.2560p 
  481.50000m  481.5000m  167.6359p 
  481.60000m  481.6000m  167.0180p 
  481.70000m  481.7000m  166.4023p 
  481.80000m  481.8000m  165.7888p 
  481.90000m  481.9000m  165.1774p 
  482.00000m  482.0000m  164.5683p 
  482.10000m  482.1000m  163.9614p 
  482.20000m  482.2000m  163.3566p 
  482.30000m  482.3000m  162.7540p 
  482.40000m  482.4000m  162.1535p 
  482.50000m  482.5000m  161.5552p 
  482.60000m  482.6000m  160.9590p 
  482.70000m  482.7000m  160.3650p 
  482.80000m  482.8000m  159.7731p 
  482.90000m  482.9000m  159.1833p 
  483.00000m  483.0000m  158.5956p 
  483.10000m  483.1000m  158.0100p 
  483.20000m  483.2000m  157.4265p 
  483.30000m  483.3000m  156.8451p 
  483.40000m  483.4000m  156.2658p 
  483.50000m  483.5000m  155.6886p 
  483.60000m  483.6000m  155.1134p 
  483.70000m  483.7000m  154.5403p 
  483.80000m  483.8000m  153.9692p 
  483.90000m  483.9000m  153.4002p 
  484.00000m  484.0000m  152.8333p 
  484.10000m  484.1000m  152.2683p 
  484.20000m  484.2000m  151.7054p 
  484.30000m  484.3000m  151.1445p 
  484.40000m  484.4000m  150.5857p 
  484.50000m  484.5000m  150.0288p 
  484.60000m  484.6000m  149.4739p 
  484.70000m  484.7000m  148.9211p 
  484.80000m  484.8000m  148.3702p 
  484.90000m  484.9000m  147.8213p 
  485.00000m  485.0000m  147.2743p 
  485.10000m  485.1000m  146.7294p 
  485.20000m  485.2000m  146.1864p 
  485.30000m  485.3000m  145.6453p 
  485.40000m  485.4000m  145.1062p 
  485.50000m  485.5000m  144.5690p 
  485.60000m  485.6000m  144.0338p 
  485.70000m  485.7000m  143.5004p 
  485.80000m  485.8000m  142.9690p 
  485.90000m  485.9000m  142.4396p 
  486.00000m  486.0000m  141.9120p 
  486.10000m  486.1000m  141.3863p 
  486.20000m  486.2000m  140.8625p 
  486.30000m  486.3000m  140.3406p 
  486.40000m  486.4000m  139.8206p 
  486.50000m  486.5000m  139.3024p 
  486.60000m  486.6000m  138.7861p 
  486.70000m  486.7000m  138.2717p 
  486.80000m  486.8000m  137.7591p 
  486.90000m  486.9000m  137.2484p 
  487.00000m  487.0000m  136.7395p 
  487.10000m  487.1000m  136.2325p 
  487.20000m  487.2000m  135.7273p 
  487.30000m  487.3000m  135.2239p 
  487.40000m  487.4000m  134.7223p 
  487.50000m  487.5000m  134.2225p 
  487.60000m  487.6000m  133.7246p 
  487.70000m  487.7000m  133.2284p 
  487.80000m  487.8000m  132.7340p 
  487.90000m  487.9000m  132.2414p 
  488.00000m  488.0000m  131.7506p 
  488.10000m  488.1000m  131.2616p 
  488.20000m  488.2000m  130.7743p 
  488.30000m  488.3000m  130.2888p 
  488.40000m  488.4000m  129.8050p 
  488.50000m  488.5000m  129.3230p 
  488.60000m  488.6000m  128.8428p 
  488.70000m  488.7000m  128.3642p 
  488.80000m  488.8000m  127.8874p 
  488.90000m  488.9000m  127.4124p 
  489.00000m  489.0000m  126.9390p 
  489.10000m  489.1000m  126.4674p 
  489.20000m  489.2000m  125.9974p 
  489.30000m  489.3000m  125.5292p 
  489.40000m  489.4000m  125.0626p 
  489.50000m  489.5000m  124.5978p 
  489.60000m  489.6000m  124.1346p 
  489.70000m  489.7000m  123.6731p 
  489.80000m  489.8000m  123.2133p 
  489.90000m  489.9000m  122.7552p 
  490.00000m  490.0000m  122.2987p 
  490.10000m  490.1000m  121.8438p 
  490.20000m  490.2000m  121.3906p 
  490.30000m  490.3000m  120.9391p 
  490.40000m  490.4000m  120.4892p 
  490.50000m  490.5000m  120.0409p 
  490.60000m  490.6000m  119.5942p 
  490.70000m  490.7000m  119.1492p 
  490.80000m  490.8000m  118.7058p 
  490.90000m  490.9000m  118.2639p 
  491.00000m  491.0000m  117.8237p 
  491.10000m  491.1000m  117.3851p 
  491.20000m  491.2000m  116.9481p 
  491.30000m  491.3000m  116.5127p 
  491.40000m  491.4000m  116.0788p 
  491.50000m  491.5000m  115.6465p 
  491.60000m  491.6000m  115.2158p 
  491.70000m  491.7000m  114.7867p 
  491.80000m  491.8000m  114.3591p 
  491.90000m  491.9000m  113.9331p 
  492.00000m  492.0000m  113.5086p 
  492.10000m  492.1000m  113.0857p 
  492.20000m  492.2000m  112.6643p 
  492.30000m  492.3000m  112.2444p 
  492.40000m  492.4000m  111.8261p 
  492.50000m  492.5000m  111.4092p 
  492.60000m  492.6000m  110.9939p 
  492.70000m  492.7000m  110.5801p 
  492.80000m  492.8000m  110.1679p 
  492.90000m  492.9000m  109.7571p 
  493.00000m  493.0000m  109.3478p 
  493.10000m  493.1000m  108.9400p 
  493.20000m  493.2000m  108.5337p 
  493.30000m  493.3000m  108.1288p 
  493.40000m  493.4000m  107.7255p 
  493.50000m  493.5000m  107.3236p 
  493.60000m  493.6000m  106.9231p 
  493.70000m  493.7000m  106.5242p 
  493.80000m  493.8000m  106.1267p 
  493.90000m  493.9000m  105.7306p 
  494.00000m  494.0000m  105.3360p 
  494.10000m  494.1000m  104.9428p 
  494.20000m  494.2000m  104.5510p 
  494.30000m  494.3000m  104.1607p 
  494.40000m  494.4000m  103.7718p 
  494.50000m  494.5000m  103.3843p 
  494.60000m  494.6000m  102.9983p 
  494.70000m  494.7000m  102.6136p 
  494.80000m  494.8000m  102.2303p 
  494.90000m  494.9000m  101.8485p 
y
1****** HSPICE -- Q-2020.03-SP2-2 linux64 (Nov  1 2020) ******                  
 ******  
 .title ex1_1

 ****** operating point information tnom=  25.000 temp=  25.000 ******
 ****** operating point status is all       simulation time is     0.     
    node    =voltage      node    =voltage      node    =voltage

 +0:bl      = 700.0000m 0:blb     = 700.0000m 0:q       =   0.     
 +0:qb      = 262.6955n 0:vdd     = 700.0000m 0:wl      =   0.     


 **** voltage sources

 subckt                                   
 element  0:vq       0:vvdd     0:vwl     
  volts      0.       700.0000m    0.     
  current   70.0000   -52.5391u  251.2267f
  power      0.        36.7774u    0.     

     total voltage source power dissipation=   36.7774u       watts




 **** mosfets


 subckt                                                                    
 element  0:mp_pu1   0:mp_pu2   0:mn_pd1   0:mn_pd2   0:mn_ax1   0:mn_ax2  
 model    0:pmos_sra 0:pmos_sra 0:nmos_sra 0:nmos_sra 0:nmos_sra 0:nmos_sra
 region   Saturation Saturation Cutoff     Cutoff     Cutoff     Cutoff    
  id       -26.2695u  -26.2695u    0.         3.9294a  678.4893f  678.4824f
  ibs        0.         0.         0.         0.         0.         0.     
  ibd        0.         0.         0.         0.         0.         0.     
  vgs     -699.9997m -700.0000m  262.6955n    0.         0.      -262.6955n
  vds     -700.0000m -699.9997m    0.       262.6955n  700.0000m  699.9997m
  vbs        0.         0.         0.         0.         0.      -262.6955n
  vth     -328.3087m -328.3087m  410.1164m  410.1164m  406.6380m  406.6380m
  vdsat   -374.5752m -374.5754m   70.6690m   70.6690m   70.6690m   70.6690m
  vod     -371.6910m -371.6913m -410.1161m -410.1164m -406.6380m -406.6383m
  beta       1.6413m    1.6413m    2.1736m    2.1736m    2.1736m    2.1736m
  gam eff    0.         0.         0.         0.         0.         0.     
  gm        94.1569u   94.1569u    0.       150.0099a   25.5580p   25.5578p
  gds        9.4596u    9.4596u   14.9556p   14.9553p  516.9705f  516.9655f
  gmb       73.5674p   73.5674p    0.       4.476e-23    7.3861a    7.3861a
  cdtot     10.2694a   10.2694a   10.2225a   10.2225a   10.2225a   10.2225a
  cgtot     54.7498a   54.7498a   20.4450a   20.4450a   20.4450a   20.4450a
  cstot     30.0435a   30.0435a   10.2225a   10.2225a   10.2225a   10.2225a
  cbtot      0.         0.         0.         0.         0.         0.     
  cgs       44.7570a   44.7571a   10.2225a   10.2225a   10.2225a   10.2225a
  cgd        9.9928a    9.9928a   10.2225a   10.2225a   10.2225a   10.2225a




          ***** job concluded
 ******  
 .title ex1_1

 ****** job statistics summary tnom=  25.000 temp=  25.000 ******
  
 ******  Machine Information  ******
 CPU:
 model name	: AMD EPYC 7713 64-Core Processor
 cpu MHz	: 2000.000
  
 OS:
 Linux version 3.10.0-1160.88.1.el7.x86_64 (mockbuild@kbuilder.bsys.centos.org) (gcc version 4.8.5 20150623 (Red Hat 4.8.5-44) (GCC) ) #1 SMP Tue Mar 7 15:41:52 UTC 2023


  ******  HSPICE Threads Information  ******

  Command Line Threads Count :     1
  Available CPU Count        :   256
  Actual Threads Count       :     1


  ******  Circuit Statistics  ******
  # nodes       =       7 # elements   =      11
  # resistors   =       0 # capacitors =       2 # inductors   =       0
  # mutual_inds =       0 # vccs       =       0 # vcvs        =       0
  # cccs        =       0 # ccvs       =       0 # volt_srcs   =       3
  # curr_srcs   =       0 # diodes     =       0 # bjts        =       0
  # jfets       =       0 # mosfets    =       6 # U elements  =       0
  # T elements  =       0 # W elements =       0 # B elements  =       0
  # S elements  =       0 # P elements =       0 # va device   =       0
  # vector_srcs =       0 # N elements =       0


  ******  Runtime Statistics (seconds)  ******

  analysis           time    # points   tot. iter  conv.iter
  op point           0.01           1           4
  dc sweep           0.38        4950       14851
  readin             0.02
  errchk             0.00
  setup              0.00
  output             0.00


           peak memory used        402.06 megabytes
           total cpu time            0.43 seconds
           total elapsed time        0.63 seconds
           job started at     23:51:00 03/18/2025
           job ended   at     23:51:01 03/18/2025
           job total runtime         0.63 seconds


 lic: Release hspice token(s) 
 lic: total license checkout elapse time:        0.19(s)
