 ****** HSPICE -- Q-2020.03-SP2-2 linux64 (Nov  1 2020) ******                  
  Copyright (c) 1986 - 2025 by Synopsys, Inc. All Rights Reserved.              
  This software and the associated documentation are proprietary
  to Synopsys, Inc. This software may only be used in accordance
  with the terms and conditions of a written license agreement with
  Synopsys, Inc. All other use, reproduction, or distribution of
  this software is strictly prohibited.
  Input File: ex1_1.sp                                                          
  Command line options: /RAID2/cad/synopsys/hspice/2020.03-sp2-2/hspice/linux64/hspice -i ex1_1.sp -o ex1_1.lis
  Start time: Tue Mar 18 23:38:39 2025
 lic:  
 lic: FLEXlm: SDK_12.6 
 lic: USER:   es25MCS042           HOSTNAME: ee28 
 lic: HOSTID: "d85ed3efc19a"       PID:      79749 
 lic: Using FLEXlm license file: 
 lic: 26585@lshc 
 lic: Checkout 1 hspice 
 lic: License/Maintenance for hspice will expire on 14-may-2025/2024.09 
 lic: 159(in_use)/1100(total) FLOATING license(s) on SERVER 26585@lshc 
 lic:   
  
      
 *****************************************************************
 ******  option summary
 ******
 runlvl  = 3         bypass  = 2.0000    
 ******
 .title ex1_1

 ****** dc transfer curves tnom=  25.000 temp=  25.000 ******
x

 volt         voltage    voltage   
             q          qb         
 -494.97475m  699.9997m  262.6958n 
 -494.87475m  699.9997m  262.5626n 
 -494.77475m  699.9997m  262.4294n 
 -494.67475m  699.9997m  262.2962n 
 -494.57475m  699.9997m  262.1630n 
 -494.47475m  699.9997m  262.0297n 
 -494.37475m  699.9997m  261.8965n 
 -494.27475m  699.9997m  261.7632n 
 -494.17475m  699.9997m  261.6299n 
 -494.07475m  699.9997m  261.4966n 
 -493.97475m  699.9997m  261.3633n 
 -493.87475m  699.9997m  261.2299n 
 -493.77475m  699.9997m  261.0966n 
 -493.67475m  699.9997m  260.9632n 
 -493.57475m  699.9997m  260.8298n 
 -493.47475m  699.9997m  260.6964n 
 -493.37475m  699.9997m  260.5629n 
 -493.27475m  699.9997m  260.4295n 
 -493.17475m  699.9997m  260.2960n 
 -493.07475m  699.9997m  260.1625n 
 -492.97475m  699.9997m  260.0290n 
 -492.87475m  699.9997m  259.8955n 
 -492.77475m  699.9997m  259.7620n 
 -492.67475m  699.9997m  259.6284n 
 -492.57475m  699.9997m  259.4948n 
 -492.47475m  699.9997m  259.3613n 
 -492.37475m  699.9997m  259.2277n 
 -492.27475m  699.9997m  259.0940n 
 -492.17475m  699.9997m  258.9604n 
 -492.07475m  699.9997m  258.8267n 
 -491.97475m  699.9997m  258.6931n 
 -491.87475m  699.9997m  258.5594n 
 -491.77475m  699.9997m  258.4257n 
 -491.67475m  699.9997m  258.2919n 
 -491.57475m  699.9997m  258.1582n 
 -491.47475m  699.9997m  258.0244n 
 -491.37475m  699.9997m  257.8907n 
 -491.27475m  699.9997m  257.7569n 
 -491.17475m  699.9997m  257.6231n 
 -491.07475m  699.9997m  257.4892n 
 -490.97475m  699.9997m  257.3554n 
 -490.87475m  699.9997m  257.2216n 
 -490.77475m  699.9997m  257.0877n 
 -490.67475m  699.9997m  256.9538n 
 -490.57475m  699.9997m  256.8199n 
 -490.47475m  699.9997m  256.6860n 
 -490.37475m  699.9997m  256.5520n 
 -490.27475m  699.9997m  256.4181n 
 -490.17475m  699.9997m  256.2841n 
 -490.07475m  699.9997m  256.1501n 
 -489.97475m  699.9997m  256.0161n 
 -489.87475m  699.9997m  255.8821n 
 -489.77475m  699.9997m  255.7481n 
 -489.67475m  699.9997m  255.6140n 
 -489.57475m  699.9997m  255.4800n 
 -489.47475m  699.9997m  255.3459n 
 -489.37475m  699.9997m  255.2118n 
 -489.27475m  699.9997m  255.0777n 
 -489.17475m  699.9997m  254.9436n 
 -489.07475m  699.9997m  254.8094n 
 -488.97475m  699.9997m  254.6753n 
 -488.87475m  699.9997m  254.5411n 
 -488.77475m  699.9997m  254.4069n 
 -488.67475m  699.9997m  254.2727n 
 -488.57475m  699.9997m  254.1385n 
 -488.47475m  699.9997m  254.0042n 
 -488.37475m  699.9997m  253.8700n 
 -488.27475m  699.9997m  253.7357n 
 -488.17475m  699.9997m  253.6014n 
 -488.07475m  699.9997m  253.4671n 
 -487.97475m  699.9997m  253.3328n 
 -487.87475m  699.9997m  253.1985n 
 -487.77475m  699.9997m  253.0642n 
 -487.67475m  699.9997m  252.9298n 
 -487.57475m  699.9997m  252.7955n 
 -487.47475m  699.9997m  252.6611n 
 -487.37475m  699.9997m  252.5267n 
 -487.27475m  699.9997m  252.3923n 
 -487.17475m  699.9997m  252.2578n 
 -487.07475m  699.9997m  252.1234n 
 -486.97475m  699.9997m  251.9889n 
 -486.87475m  699.9997m  251.8545n 
 -486.77475m  699.9997m  251.7200n 
 -486.67475m  699.9997m  251.5855n 
 -486.57475m  699.9997m  251.4510n 
 -486.47475m  699.9997m  251.3164n 
 -486.37475m  699.9997m  251.1819n 
 -486.27475m  699.9997m  251.0473n 
 -486.17475m  699.9997m  250.9128n 
 -486.07475m  699.9997m  250.7782n 
 -485.97475m  699.9997m  250.6436n 
 -485.87475m  699.9997m  250.5090n 
 -485.77475m  699.9997m  250.3743n 
 -485.67475m  699.9997m  250.2397n 
 -485.57475m  699.9997m  250.1050n 
 -485.47475m  699.9997m  249.9704n 
 -485.37475m  699.9997m  249.8357n 
 -485.27475m  699.9997m  249.7010n 
 -485.17475m  699.9997m  249.5663n 
 -485.07475m  699.9997m  249.4315n 
 -484.97475m  699.9997m  249.2968n 
 -484.87475m  699.9997m  249.1620n 
 -484.77475m  699.9997m  249.0273n 
 -484.67475m  699.9997m  248.8925n 
 -484.57475m  699.9997m  248.7577n 
 -484.47475m  699.9997m  248.6229n 
 -484.37475m  699.9997m  248.4881n 
 -484.27475m  699.9997m  248.3533n 
 -484.17475m  699.9997m  248.2184n 
 -484.07475m  699.9997m  248.0836n 
 -483.97475m  699.9997m  247.9487n 
 -483.87475m  699.9997m  247.8138n 
 -483.77475m  699.9997m  247.6789n 
 -483.67475m  699.9997m  247.5440n 
 -483.57475m  699.9997m  247.4091n 
 -483.47475m  699.9997m  247.2741n 
 -483.37475m  699.9997m  247.1392n 
 -483.27475m  699.9997m  247.0042n 
 -483.17475m  699.9997m  246.8692n 
 -483.07475m  699.9997m  246.7343n 
 -482.97475m  699.9997m  246.5993n 
 -482.87475m  699.9997m  246.4642n 
 -482.77475m  699.9997m  246.3292n 
 -482.67475m  699.9997m  246.1942n 
 -482.57475m  699.9997m  246.0591n 
 -482.47475m  699.9997m  245.9241n 
 -482.37475m  699.9997m  245.7890n 
 -482.27475m  699.9997m  245.6539n 
 -482.17475m  699.9997m  245.5188n 
 -482.07475m  699.9997m  245.3837n 
 -481.97475m  699.9997m  245.2486n 
 -481.87475m  699.9997m  245.1134n 
 -481.77475m  699.9997m  244.9783n 
 -481.67475m  699.9997m  244.8431n 
 -481.57475m  699.9997m  244.7079n 
 -481.47475m  699.9997m  244.5728n 
 -481.37475m  699.9997m  244.4376n 
 -481.27475m  699.9997m  244.3024n 
 -481.17475m  699.9997m  244.1671n 
 -481.07475m  699.9997m  244.0319n 
 -480.97475m  699.9997m  243.8967n 
 -480.87475m  699.9997m  243.7614n 
 -480.77475m  699.9997m  243.6261n 
 -480.67475m  699.9997m  243.4909n 
 -480.57475m  699.9997m  243.3556n 
 -480.47475m  699.9997m  243.2203n 
 -480.37475m  699.9997m  243.0850n 
 -480.27475m  699.9997m  242.9496n 
 -480.17475m  699.9997m  242.8143n 
 -480.07475m  699.9997m  242.6790n 
 -479.97475m  699.9997m  242.5436n 
 -479.87475m  699.9997m  242.4082n 
 -479.77475m  699.9997m  242.2729n 
 -479.67475m  699.9997m  242.1375n 
 -479.57475m  699.9997m  242.0021n 
 -479.47475m  699.9997m  241.8666n 
 -479.37475m  699.9997m  241.7312n 
 -479.27475m  699.9997m  241.5958n 
 -479.17475m  699.9997m  241.4603n 
 -479.07475m  699.9997m  241.3249n 
 -478.97475m  699.9997m  241.1894n 
 -478.87475m  699.9997m  241.0539n 
 -478.77475m  699.9997m  240.9185n 
 -478.67475m  699.9997m  240.7830n 
 -478.57475m  699.9997m  240.6475n 
 -478.47475m  699.9997m  240.5119n 
 -478.37475m  699.9997m  240.3764n 
 -478.27475m  699.9997m  240.2409n 
 -478.17475m  699.9997m  240.1053n 
 -478.07475m  699.9997m  239.9698n 
 -477.97475m  699.9997m  239.8342n 
 -477.87475m  699.9997m  239.6986n 
 -477.77475m  699.9997m  239.5630n 
 -477.67475m  699.9997m  239.4274n 
 -477.57475m  699.9997m  239.2918n 
 -477.47475m  699.9997m  239.1562n 
 -477.37475m  699.9997m  239.0205n 
 -477.27475m  699.9997m  238.8849n 
 -477.17475m  699.9997m  238.7493n 
 -477.07475m  699.9997m  238.6136n 
 -476.97475m  699.9997m  238.4779n 
 -476.87475m  699.9997m  238.3422n 
 -476.77475m  699.9997m  238.2066n 
 -476.67475m  699.9997m  238.0709n 
 -476.57475m  699.9997m  237.9352n 
 -476.47475m  699.9997m  237.7994n 
 -476.37475m  699.9997m  237.6637n 
 -476.27475m  699.9997m  237.5280n 
 -476.17475m  699.9997m  237.3922n 
 -476.07475m  699.9997m  237.2565n 
 -475.97475m  699.9997m  237.1207n 
 -475.87475m  699.9997m  236.9849n 
 -475.77475m  699.9997m  236.8491n 
 -475.67475m  699.9997m  236.7134n 
 -475.57475m  699.9997m  236.5776n 
 -475.47475m  699.9997m  236.4417n 
 -475.37475m  699.9997m  236.3059n 
 -475.27475m  699.9997m  236.1701n 
 -475.17475m  699.9997m  236.0343n 
 -475.07475m  699.9997m  235.8984n 
 -474.97475m  699.9997m  235.7626n 
 -474.87475m  699.9997m  235.6267n 
 -474.77475m  699.9997m  235.4908n 
 -474.67475m  699.9997m  235.3550n 
 -474.57475m  699.9997m  235.2191n 
 -474.47475m  699.9997m  235.0832n 
 -474.37475m  699.9998m  234.9473n 
 -474.27475m  699.9998m  234.8114n 
 -474.17475m  699.9998m  234.6754n 
 -474.07475m  699.9998m  234.5395n 
 -473.97475m  699.9998m  234.4036n 
 -473.87475m  699.9998m  234.2676n 
 -473.77475m  699.9998m  234.1317n 
 -473.67475m  699.9998m  233.9957n 
 -473.57475m  699.9998m  233.8597n 
 -473.47475m  699.9998m  233.7238n 
 -473.37475m  699.9998m  233.5878n 
 -473.27475m  699.9998m  233.4518n 
 -473.17475m  699.9998m  233.3158n 
 -473.07475m  699.9998m  233.1798n 
 -472.97475m  699.9998m  233.0438n 
 -472.87475m  699.9998m  232.9077n 
 -472.77475m  699.9998m  232.7717n 
 -472.67475m  699.9998m  232.6357n 
 -472.57475m  699.9998m  232.4996n 
 -472.47475m  699.9998m  232.3636n 
 -472.37475m  699.9998m  232.2275n 
 -472.27475m  699.9998m  232.0914n 
 -472.17475m  699.9998m  231.9554n 
 -472.07475m  699.9998m  231.8193n 
 -471.97475m  699.9998m  231.6832n 
 -471.87475m  699.9998m  231.5471n 
 -471.77475m  699.9998m  231.4110n 
 -471.67475m  699.9998m  231.2749n 
 -471.57475m  699.9998m  231.1387n 
 -471.47475m  699.9998m  231.0026n 
 -471.37475m  699.9998m  230.8665n 
 -471.27475m  699.9998m  230.7304n 
 -471.17475m  699.9998m  230.5942n 
 -471.07475m  699.9998m  230.4581n 
 -470.97475m  699.9998m  230.3219n 
 -470.87475m  699.9998m  230.1857n 
 -470.77475m  699.9998m  230.0496n 
 -470.67475m  699.9998m  229.9134n 
 -470.57475m  699.9998m  229.7772n 
 -470.47475m  699.9998m  229.6410n 
 -470.37475m  699.9998m  229.5048n 
 -470.27475m  699.9998m  229.3686n 
 -470.17475m  699.9998m  229.2324n 
 -470.07475m  699.9998m  229.0962n 
 -469.97475m  699.9998m  228.9600n 
 -469.87475m  699.9998m  228.8237n 
 -469.77475m  699.9998m  228.6875n 
 -469.67475m  699.9998m  228.5512n 
 -469.57475m  699.9998m  228.4150n 
 -469.47475m  699.9998m  228.2787n 
 -469.37475m  699.9998m  228.1425n 
 -469.27475m  699.9998m  228.0062n 
 -469.17475m  699.9998m  227.8700n 
 -469.07475m  699.9998m  227.7337n 
 -468.97475m  699.9998m  227.5974n 
 -468.87475m  699.9998m  227.4611n 
 -468.77475m  699.9998m  227.3248n 
 -468.67475m  699.9998m  227.1885n 
 -468.57475m  699.9998m  227.0522n 
 -468.47475m  699.9998m  226.9159n 
 -468.37475m  699.9998m  226.7796n 
 -468.27475m  699.9998m  226.6433n 
 -468.17475m  699.9998m  226.5070n 
 -468.07475m  699.9998m  226.3706n 
 -467.97475m  699.9998m  226.2343n 
 -467.87475m  699.9998m  226.0980n 
 -467.77475m  699.9998m  225.9616n 
 -467.67475m  699.9998m  225.8253n 
 -467.57475m  699.9998m  225.6889n 
 -467.47475m  699.9998m  225.5526n 
 -467.37475m  699.9998m  225.4162n 
 -467.27475m  699.9998m  225.2798n 
 -467.17475m  699.9998m  225.1435n 
 -467.07475m  699.9998m  225.0071n 
 -466.97475m  699.9998m  224.8707n 
 -466.87475m  699.9998m  224.7343n 
 -466.77475m  699.9998m  224.5979n 
 -466.67475m  699.9998m  224.4615n 
 -466.57475m  699.9998m  224.3251n 
 -466.47475m  699.9998m  224.1887n 
 -466.37475m  699.9998m  224.0523n 
 -466.27475m  699.9998m  223.9159n 
 -466.17475m  699.9998m  223.7795n 
 -466.07475m  699.9998m  223.6431n 
 -465.97475m  699.9998m  223.5067n 
 -465.87475m  699.9998m  223.3702n 
 -465.77475m  699.9998m  223.2338n 
 -465.67475m  699.9998m  223.0974n 
 -465.57475m  699.9998m  222.9609n 
 -465.47475m  699.9998m  222.8245n 
 -465.37475m  699.9998m  222.6880n 
 -465.27475m  699.9998m  222.5516n 
 -465.17475m  699.9998m  222.4151n 
 -465.07475m  699.9998m  222.2787n 
 -464.97475m  699.9998m  222.1422n 
 -464.87475m  699.9998m  222.0057n 
 -464.77475m  699.9998m  221.8693n 
 -464.67475m  699.9998m  221.7328n 
 -464.57475m  699.9998m  221.5963n 
 -464.47475m  699.9998m  221.4599n 
 -464.37475m  699.9998m  221.3234n 
 -464.27475m  699.9998m  221.1869n 
 -464.17475m  699.9998m  221.0504n 
 -464.07475m  699.9998m  220.9139n 
 -463.97475m  699.9998m  220.7774n 
 -463.87475m  699.9998m  220.6409n 
 -463.77475m  699.9998m  220.5044n 
 -463.67475m  699.9998m  220.3679n 
 -463.57475m  699.9998m  220.2314n 
 -463.47475m  699.9998m  220.0949n 
 -463.37475m  699.9998m  219.9584n 
 -463.27475m  699.9998m  219.8219n 
 -463.17475m  699.9998m  219.6854n 
 -463.07475m  699.9998m  219.5489n 
 -462.97475m  699.9998m  219.4124n 
 -462.87475m  699.9998m  219.2758n 
 -462.77475m  699.9998m  219.1393n 
 -462.67475m  699.9998m  219.0028n 
 -462.57475m  699.9998m  218.8663n 
 -462.47475m  699.9998m  218.7297n 
 -462.37475m  699.9998m  218.5932n 
 -462.27475m  699.9998m  218.4567n 
 -462.17475m  699.9998m  218.3201n 
 -462.07475m  699.9998m  218.1836n 
 -461.97475m  699.9998m  218.0471n 
 -461.87475m  699.9998m  217.9105n 
 -461.77475m  699.9998m  217.7740n 
 -461.67475m  699.9998m  217.6374n 
 -461.57475m  699.9998m  217.5009n 
 -461.47475m  699.9998m  217.3643n 
 -461.37475m  699.9998m  217.2278n 
 -461.27475m  699.9998m  217.0912n 
 -461.17475m  699.9998m  216.9547n 
 -461.07475m  699.9998m  216.8181n 
 -460.97475m  699.9998m  216.6816n 
 -460.87475m  699.9998m  216.5450n 
 -460.77475m  699.9998m  216.4085n 
 -460.67475m  699.9998m  216.2719n 
 -460.57475m  699.9998m  216.1354n 
 -460.47475m  699.9998m  215.9988n 
 -460.37475m  699.9998m  215.8622n 
 -460.27475m  699.9998m  215.7257n 
 -460.17475m  699.9998m  215.5891n 
 -460.07475m  699.9998m  215.4525n 
 -459.97475m  699.9998m  215.3160n 
 -459.87475m  699.9998m  215.1794n 
 -459.77475m  699.9998m  215.0428n 
 -459.67475m  699.9998m  214.9063n 
 -459.57475m  699.9998m  214.7697n 
 -459.47475m  699.9998m  214.6332n 
 -459.37475m  699.9998m  214.4966n 
 -459.27475m  699.9998m  214.3600n 
 -459.17475m  699.9998m  214.2234n 
 -459.07475m  699.9998m  214.0869n 
 -458.97475m  699.9998m  213.9503n 
 -458.87475m  699.9998m  213.8137n 
 -458.77475m  699.9998m  213.6772n 
 -458.67475m  699.9998m  213.5406n 
 -458.57475m  699.9998m  213.4040n 
 -458.47475m  699.9998m  213.2675n 
 -458.37475m  699.9998m  213.1309n 
 -458.27475m  699.9998m  212.9943n 
 -458.17475m  699.9998m  212.8578n 
 -458.07475m  699.9998m  212.7212n 
 -457.97475m  699.9998m  212.5846n 
 -457.87475m  699.9998m  212.4481n 
 -457.77475m  699.9998m  212.3115n 
 -457.67475m  699.9998m  212.1749n 
 -457.57475m  699.9998m  212.0384n 
 -457.47475m  699.9998m  211.9018n 
 -457.37475m  699.9998m  211.7652n 
 -457.27475m  699.9998m  211.6287n 
 -457.17475m  699.9998m  211.4921n 
 -457.07475m  699.9998m  211.3556n 
 -456.97475m  699.9998m  211.2190n 
 -456.87475m  699.9998m  211.0824n 
 -456.77475m  699.9998m  210.9459n 
 -456.67475m  699.9998m  210.8093n 
 -456.57475m  699.9998m  210.6728n 
 -456.47475m  699.9998m  210.5362n 
 -456.37475m  699.9998m  210.3997n 
 -456.27475m  699.9998m  210.2631n 
 -456.17475m  699.9998m  210.1266n 
 -456.07475m  699.9998m  209.9900n 
 -455.97475m  699.9998m  209.8535n 
 -455.87475m  699.9998m  209.7169n 
 -455.77475m  699.9998m  209.5804n 
 -455.67475m  699.9998m  209.4438n 
 -455.57475m  699.9998m  209.3073n 
 -455.47475m  699.9998m  209.1707n 
 -455.37475m  699.9998m  209.0342n 
 -455.27475m  699.9998m  208.8977n 
 -455.17475m  699.9998m  208.7611n 
 -455.07475m  699.9998m  208.6246n 
 -454.97475m  699.9998m  208.4881n 
 -454.87475m  699.9998m  208.3516n 
 -454.77475m  699.9998m  208.2150n 
 -454.67475m  699.9998m  208.0785n 
 -454.57475m  699.9998m  207.9420n 
 -454.47475m  699.9998m  207.8055n 
 -454.37475m  699.9998m  207.6690n 
 -454.27475m  699.9998m  207.5324n 
 -454.17475m  699.9998m  207.3959n 
 -454.07475m  699.9998m  207.2594n 
 -453.97475m  699.9998m  207.1229n 
 -453.87475m  699.9998m  206.9864n 
 -453.77475m  699.9998m  206.8499n 
 -453.67475m  699.9998m  206.7134n 
 -453.57475m  699.9998m  206.5769n 
 -453.47475m  699.9998m  206.4404n 
 -453.37475m  699.9998m  206.3039n 
 -453.27475m  699.9998m  206.1675n 
 -453.17475m  699.9998m  206.0310n 
 -453.07475m  699.9998m  205.8945n 
 -452.97475m  699.9998m  205.7580n 
 -452.87475m  699.9998m  205.6215n 
 -452.77475m  699.9998m  205.4851n 
 -452.67475m  699.9998m  205.3486n 
 -452.57475m  699.9998m  205.2121n 
 -452.47475m  699.9998m  205.0757n 
 -452.37475m  699.9998m  204.9392n 
 -452.27475m  699.9998m  204.8028n 
 -452.17475m  699.9998m  204.6663n 
 -452.07475m  699.9998m  204.5299n 
 -451.97475m  699.9998m  204.3934n 
 -451.87475m  699.9998m  204.2570n 
 -451.77475m  699.9998m  204.1206n 
 -451.67475m  699.9998m  203.9841n 
 -451.57475m  699.9998m  203.8477n 
 -451.47475m  699.9998m  203.7113n 
 -451.37475m  699.9998m  203.5749n 
 -451.27475m  699.9998m  203.4385n 
 -451.17475m  699.9998m  203.3020n 
 -451.07475m  699.9998m  203.1656n 
 -450.97475m  699.9998m  203.0292n 
 -450.87475m  699.9998m  202.8928n 
 -450.77475m  699.9998m  202.7565n 
 -450.67475m  699.9998m  202.6201n 
 -450.57475m  699.9998m  202.4837n 
 -450.47475m  699.9998m  202.3473n 
 -450.37475m  699.9998m  202.2109n 
 -450.27475m  699.9998m  202.0746n 
 -450.17475m  699.9998m  201.9382n 
 -450.07475m  699.9998m  201.8018n 
 -449.97475m  699.9998m  201.6655n 
 -449.87475m  699.9998m  201.5291n 
 -449.77475m  699.9998m  201.3928n 
 -449.67475m  699.9998m  201.2565n 
 -449.57475m  699.9998m  201.1201n 
 -449.47475m  699.9998m  200.9838n 
 -449.37475m  699.9998m  200.8475n 
 -449.27475m  699.9998m  200.7112n 
 -449.17475m  699.9998m  200.5748n 
 -449.07475m  699.9998m  200.4385n 
 -448.97475m  699.9998m  200.3022n 
 -448.87475m  699.9998m  200.1659n 
 -448.77475m  699.9998m  200.0296n 
 -448.67475m  699.9998m  199.8934n 
 -448.57475m  699.9998m  199.7571n 
 -448.47475m  699.9998m  199.6208n 
 -448.37475m  699.9998m  199.4845n 
 -448.27475m  699.9998m  199.3483n 
 -448.17475m  699.9998m  199.2120n 
 -448.07475m  699.9998m  199.0758n 
 -447.97475m  699.9998m  198.9395n 
 -447.87475m  699.9998m  198.8033n 
 -447.77475m  699.9998m  198.6671n 
 -447.67475m  699.9998m  198.5308n 
 -447.57475m  699.9998m  198.3946n 
 -447.47475m  699.9998m  198.2584n 
 -447.37475m  699.9998m  198.1222n 
 -447.27475m  699.9998m  197.9860n 
 -447.17475m  699.9998m  197.8498n 
 -447.07475m  699.9998m  197.7136n 
 -446.97475m  699.9998m  197.5774n 
 -446.87475m  699.9998m  197.4413n 
 -446.77475m  699.9998m  197.3051n 
 -446.67475m  699.9998m  197.1689n 
 -446.57475m  699.9998m  197.0328n 
 -446.47475m  699.9998m  196.8966n 
 -446.37475m  699.9998m  196.7605n 
 -446.27475m  699.9998m  196.6244n 
 -446.17475m  699.9998m  196.4882n 
 -446.07475m  699.9998m  196.3521n 
 -445.97475m  699.9998m  196.2160n 
 -445.87475m  699.9998m  196.0799n 
 -445.77475m  699.9998m  195.9438n 
 -445.67475m  699.9998m  195.8077n 
 -445.57475m  699.9998m  195.6716n 
 -445.47475m  699.9998m  195.5356n 
 -445.37475m  699.9998m  195.3995n 
 -445.27475m  699.9998m  195.2634n 
 -445.17475m  699.9998m  195.1274n 
 -445.07475m  699.9998m  194.9914n 
 -444.97475m  699.9998m  194.8553n 
 -444.87475m  699.9998m  194.7193n 
 -444.77475m  699.9998m  194.5833n 
 -444.67475m  699.9998m  194.4473n 
 -444.57475m  699.9998m  194.3113n 
 -444.47475m  699.9998m  194.1753n 
 -444.37475m  699.9998m  194.0393n 
 -444.27475m  699.9998m  193.9033n 
 -444.17475m  699.9998m  193.7673n 
 -444.07475m  699.9998m  193.6314n 
 -443.97475m  699.9998m  193.4954n 
 -443.87475m  699.9998m  193.3595n 
 -443.77475m  699.9998m  193.2235n 
 -443.67475m  699.9998m  193.0876n 
 -443.57475m  699.9998m  192.9517n 
 -443.47475m  699.9998m  192.8158n 
 -443.37475m  699.9998m  192.6799n 
 -443.27475m  699.9998m  192.5440n 
 -443.17475m  699.9998m  192.4081n 
 -443.07475m  699.9998m  192.2722n 
 -442.97475m  699.9998m  192.1363n 
 -442.87475m  699.9998m  192.0005n 
 -442.77475m  699.9998m  191.8646n 
 -442.67475m  699.9998m  191.7288n 
 -442.57475m  699.9998m  191.5930n 
 -442.47475m  699.9998m  191.4571n 
 -442.37475m  699.9998m  191.3213n 
 -442.27475m  699.9998m  191.1855n 
 -442.17475m  699.9998m  191.0497n 
 -442.07475m  699.9998m  190.9140n 
 -441.97475m  699.9998m  190.7782n 
 -441.87475m  699.9998m  190.6424n 
 -441.77475m  699.9998m  190.5067n 
 -441.67475m  699.9998m  190.3709n 
 -441.57475m  699.9998m  190.2352n 
 -441.47475m  699.9998m  190.0995n 
 -441.37475m  699.9998m  189.9637n 
 -441.27475m  699.9998m  189.8280n 
 -441.17475m  699.9998m  189.6923n 
 -441.07475m  699.9998m  189.5567n 
 -440.97475m  699.9998m  189.4210n 
 -440.87475m  699.9998m  189.2853n 
 -440.77475m  699.9998m  189.1497n 
 -440.67475m  699.9998m  189.0140n 
 -440.57475m  699.9998m  188.8784n 
 -440.47475m  699.9998m  188.7428n 
 -440.37475m  699.9998m  188.6072n 
 -440.27475m  699.9998m  188.4716n 
 -440.17475m  699.9998m  188.3360n 
 -440.07475m  699.9998m  188.2004n 
 -439.97475m  699.9998m  188.0648n 
 -439.87475m  699.9998m  187.9292n 
 -439.77475m  699.9998m  187.7937n 
 -439.67475m  699.9998m  187.6582n 
 -439.57475m  699.9998m  187.5226n 
 -439.47475m  699.9998m  187.3871n 
 -439.37475m  699.9998m  187.2516n 
 -439.27475m  699.9998m  187.1161n 
 -439.17475m  699.9998m  186.9806n 
 -439.07475m  699.9998m  186.8452n 
 -438.97475m  699.9998m  186.7097n 
 -438.87475m  699.9998m  186.5743n 
 -438.77475m  699.9998m  186.4388n 
 -438.67475m  699.9998m  186.3034n 
 -438.57475m  699.9998m  186.1680n 
 -438.47475m  699.9998m  186.0326n 
 -438.37475m  699.9998m  185.8972n 
 -438.27475m  699.9998m  185.7618n 
 -438.17475m  699.9998m  185.6265n 
 -438.07475m  699.9998m  185.4911n 
 -437.97475m  699.9998m  185.3558n 
 -437.87475m  699.9998m  185.2204n 
 -437.77475m  699.9998m  185.0851n 
 -437.67475m  699.9998m  184.9498n 
 -437.57475m  699.9998m  184.8145n 
 -437.47475m  699.9998m  184.6792n 
 -437.37475m  699.9998m  184.5440n 
 -437.27475m  699.9998m  184.4087n 
 -437.17475m  699.9998m  184.2734n 
 -437.07475m  699.9998m  184.1382n 
 -436.97475m  699.9998m  184.0030n 
 -436.87475m  699.9998m  183.8678n 
 -436.77475m  699.9998m  183.7326n 
 -436.67475m  699.9998m  183.5974n 
 -436.57475m  699.9998m  183.4622n 
 -436.47475m  699.9998m  183.3271n 
 -436.37475m  699.9998m  183.1919n 
 -436.27475m  699.9998m  183.0568n 
 -436.17475m  699.9998m  182.9217n 
 -436.07475m  699.9998m  182.7866n 
 -435.97475m  699.9998m  182.6515n 
 -435.87475m  699.9998m  182.5164n 
 -435.77475m  699.9998m  182.3814n 
 -435.67475m  699.9998m  182.2463n 
 -435.57475m  699.9998m  182.1113n 
 -435.47475m  699.9998m  181.9762n 
 -435.37475m  699.9998m  181.8412n 
 -435.27475m  699.9998m  181.7062n 
 -435.17475m  699.9998m  181.5712n 
 -435.07475m  699.9998m  181.4363n 
 -434.97475m  699.9998m  181.3013n 
 -434.87475m  699.9998m  181.1664n 
 -434.77475m  699.9998m  181.0314n 
 -434.67475m  699.9998m  180.8965n 
 -434.57475m  699.9998m  180.7616n 
 -434.47475m  699.9998m  180.6267n 
 -434.37475m  699.9998m  180.4919n 
 -434.27475m  699.9998m  180.3570n 
 -434.17475m  699.9998m  180.2222n 
 -434.07475m  699.9998m  180.0873n 
 -433.97475m  699.9998m  179.9525n 
 -433.87475m  699.9998m  179.8177n 
 -433.77475m  699.9998m  179.6829n 
 -433.67475m  699.9998m  179.5481n 
 -433.57475m  699.9998m  179.4134n 
 -433.47475m  699.9998m  179.2786n 
 -433.37475m  699.9998m  179.1439n 
 -433.27475m  699.9998m  179.0092n 
 -433.17475m  699.9998m  178.8745n 
 -433.07475m  699.9998m  178.7398n 
 -432.97475m  699.9998m  178.6051n 
 -432.87475m  699.9998m  178.4705n 
 -432.77475m  699.9998m  178.3358n 
 -432.67475m  699.9998m  178.2012n 
 -432.57475m  699.9998m  178.0666n 
 -432.47475m  699.9998m  177.9320n 
 -432.37475m  699.9998m  177.7974n 
 -432.27475m  699.9998m  177.6629n 
 -432.17475m  699.9998m  177.5283n 
 -432.07475m  699.9998m  177.3938n 
 -431.97475m  699.9998m  177.2593n 
 -431.87475m  699.9998m  177.1248n 
 -431.77475m  699.9998m  176.9903n 
 -431.67475m  699.9998m  176.8558n 
 -431.57475m  699.9998m  176.7214n 
 -431.47475m  699.9998m  176.5869n 
 -431.37475m  699.9998m  176.4525n 
 -431.27475m  699.9998m  176.3181n 
 -431.17475m  699.9998m  176.1837n 
 -431.07475m  699.9998m  176.0493n 
 -430.97475m  699.9998m  175.9150n 
 -430.87475m  699.9998m  175.7806n 
 -430.77475m  699.9998m  175.6463n 
 -430.67475m  699.9998m  175.5120n 
 -430.57475m  699.9998m  175.3777n 
 -430.47475m  699.9998m  175.2434n 
 -430.37475m  699.9998m  175.1091n 
 -430.27475m  699.9998m  174.9749n 
 -430.17475m  699.9998m  174.8407n 
 -430.07475m  699.9998m  174.7065n 
 -429.97475m  699.9998m  174.5723n 
 -429.87475m  699.9998m  174.4381n 
 -429.77475m  699.9998m  174.3039n 
 -429.67475m  699.9998m  174.1698n 
 -429.57475m  699.9998m  174.0357n 
 -429.47475m  699.9998m  173.9015n 
 -429.37475m  699.9998m  173.7674n 
 -429.27475m  699.9998m  173.6334n 
 -429.17475m  699.9998m  173.4993n 
 -429.07475m  699.9998m  173.3653n 
 -428.97475m  699.9998m  173.2312n 
 -428.87475m  699.9998m  173.0972n 
 -428.77475m  699.9998m  172.9632n 
 -428.67475m  699.9998m  172.8293n 
 -428.57475m  699.9998m  172.6953n 
 -428.47475m  699.9998m  172.5614n 
 -428.37475m  699.9998m  172.4275n 
 -428.27475m  699.9998m  172.2936n 
 -428.17475m  699.9998m  172.1597n 
 -428.07475m  699.9998m  172.0258n 
 -427.97475m  699.9998m  171.8920n 
 -427.87475m  699.9998m  171.7581n 
 -427.77475m  699.9998m  171.6243n 
 -427.67475m  699.9998m  171.4905n 
 -427.57475m  699.9998m  171.3568n 
 -427.47475m  699.9998m  171.2230n 
 -427.37475m  699.9998m  171.0893n 
 -427.27475m  699.9998m  170.9555n 
 -427.17475m  699.9998m  170.8218n 
 -427.07475m  699.9998m  170.6881n 
 -426.97475m  699.9998m  170.5545n 
 -426.87475m  699.9998m  170.4208n 
 -426.77475m  699.9998m  170.2872n 
 -426.67475m  699.9998m  170.1536n 
 -426.57475m  699.9998m  170.0200n 
 -426.47475m  699.9998m  169.8864n 
 -426.37475m  699.9998m  169.7529n 
 -426.27475m  699.9998m  169.6193n 
 -426.17475m  699.9998m  169.4858n 
 -426.07475m  699.9998m  169.3523n 
 -425.97475m  699.9998m  169.2189n 
 -425.87475m  699.9998m  169.0854n 
 -425.77475m  699.9998m  168.9520n 
 -425.67475m  699.9998m  168.8185n 
 -425.57475m  699.9998m  168.6851n 
 -425.47475m  699.9998m  168.5518n 
 -425.37475m  699.9998m  168.4184n 
 -425.27475m  699.9998m  168.2851n 
 -425.17475m  699.9998m  168.1517n 
 -425.07475m  699.9998m  168.0184n 
 -424.97475m  699.9998m  167.8852n 
 -424.87475m  699.9998m  167.7519n 
 -424.77475m  699.9998m  167.6187n 
 -424.67475m  699.9998m  167.4854n 
 -424.57475m  699.9998m  167.3522n 
 -424.47475m  699.9998m  167.2190n 
 -424.37475m  699.9998m  167.0859n 
 -424.27475m  699.9998m  166.9527n 
 -424.17475m  699.9998m  166.8196n 
 -424.07475m  699.9998m  166.6865n 
 -423.97475m  699.9998m  166.5534n 
 -423.87475m  699.9998m  166.4204n 
 -423.77475m  699.9998m  166.2873n 
 -423.67475m  699.9998m  166.1543n 
 -423.57475m  699.9998m  166.0213n 
 -423.47475m  699.9998m  165.8883n 
 -423.37475m  699.9998m  165.7554n 
 -423.27475m  699.9998m  165.6224n 
 -423.17475m  699.9998m  165.4895n 
 -423.07475m  699.9998m  165.3566n 
 -422.97475m  699.9998m  165.2238n 
 -422.87475m  699.9998m  165.0909n 
 -422.77475m  699.9998m  164.9581n 
 -422.67475m  699.9998m  164.8253n 
 -422.57475m  699.9998m  164.6925n 
 -422.47475m  699.9998m  164.5597n 
 -422.37475m  699.9998m  164.4269n 
 -422.27475m  699.9998m  164.2942n 
 -422.17475m  699.9998m  164.1615n 
 -422.07475m  699.9998m  164.0288n 
 -421.97475m  699.9998m  163.8962n 
 -421.87475m  699.9998m  163.7635n 
 -421.77475m  699.9998m  163.6309n 
 -421.67475m  699.9998m  163.4983n 
 -421.57475m  699.9998m  163.3657n 
 -421.47475m  699.9998m  163.2332n 
 -421.37475m  699.9998m  163.1007n 
 -421.27475m  699.9998m  162.9681n 
 -421.17475m  699.9998m  162.8357n 
 -421.07475m  699.9998m  162.7032n 
 -420.97475m  699.9998m  162.5708n 
 -420.87475m  699.9998m  162.4383n 
 -420.77475m  699.9998m  162.3059n 
 -420.67475m  699.9998m  162.1736n 
 -420.57475m  699.9998m  162.0412n 
 -420.47475m  699.9998m  161.9089n 
 -420.37475m  699.9998m  161.7766n 
 -420.27475m  699.9998m  161.6443n 
 -420.17475m  699.9998m  161.5120n 
 -420.07475m  699.9998m  161.3798n 
 -419.97475m  699.9998m  161.2476n 
 -419.87475m  699.9998m  161.1154n 
 -419.77475m  699.9998m  160.9832n 
 -419.67475m  699.9998m  160.8510n 
 -419.57475m  699.9998m  160.7189n 
 -419.47475m  699.9998m  160.5868n 
 -419.37475m  699.9998m  160.4547n 
 -419.27475m  699.9998m  160.3227n 
 -419.17475m  699.9998m  160.1906n 
 -419.07475m  699.9998m  160.0586n 
 -418.97475m  699.9998m  159.9266n 
 -418.87475m  699.9998m  159.7947n 
 -418.77475m  699.9998m  159.6627n 
 -418.67475m  699.9998m  159.5308n 
 -418.57475m  699.9998m  159.3989n 
 -418.47475m  699.9998m  159.2671n 
 -418.37475m  699.9998m  159.1352n 
 -418.27475m  699.9998m  159.0034n 
 -418.17475m  699.9998m  158.8716n 
 -418.07475m  699.9998m  158.7398n 
 -417.97475m  699.9998m  158.6081n 
 -417.87475m  699.9998m  158.4763n 
 -417.77475m  699.9998m  158.3446n 
 -417.67475m  699.9998m  158.2130n 
 -417.57475m  699.9998m  158.0813n 
 -417.47475m  699.9998m  157.9497n 
 -417.37475m  699.9998m  157.8181n 
 -417.27475m  699.9998m  157.6865n 
 -417.17475m  699.9998m  157.5549n 
 -417.07475m  699.9998m  157.4234n 
 -416.97475m  699.9998m  157.2919n 
 -416.87475m  699.9998m  157.1604n 
 -416.77475m  699.9998m  157.0290n 
 -416.67475m  699.9998m  156.8975n 
 -416.57475m  699.9998m  156.7661n 
 -416.47475m  699.9998m  156.6347n 
 -416.37475m  699.9998m  156.5034n 
 -416.27475m  699.9998m  156.3720n 
 -416.17475m  699.9998m  156.2407n 
 -416.07475m  699.9998m  156.1094n 
 -415.97475m  699.9998m  155.9782n 
 -415.87475m  699.9998m  155.8470n 
 -415.77475m  699.9998m  155.7158n 
 -415.67475m  699.9998m  155.5846n 
 -415.57475m  699.9998m  155.4534n 
 -415.47475m  699.9998m  155.3223n 
 -415.37475m  699.9998m  155.1912n 
 -415.27475m  699.9998m  155.0601n 
 -415.17475m  699.9998m  154.9290n 
 -415.07475m  699.9998m  154.7980n 
 -414.97475m  699.9998m  154.6670n 
 -414.87475m  699.9998m  154.5360n 
 -414.77475m  699.9998m  154.4051n 
 -414.67475m  699.9998m  154.2742n 
 -414.57475m  699.9998m  154.1433n 
 -414.47475m  699.9998m  154.0124n 
 -414.37475m  699.9998m  153.8815n 
 -414.27475m  699.9998m  153.7507n 
 -414.17475m  699.9998m  153.6199n 
 -414.07475m  699.9998m  153.4892n 
 -413.97475m  699.9998m  153.3584n 
 -413.87475m  699.9998m  153.2277n 
 -413.77475m  699.9998m  153.0970n 
 -413.67475m  699.9998m  152.9664n 
 -413.57475m  699.9998m  152.8357n 
 -413.47475m  699.9998m  152.7051n 
 -413.37475m  699.9998m  152.5745n 
 -413.27475m  699.9998m  152.4440n 
 -413.17475m  699.9998m  152.3134n 
 -413.07475m  699.9998m  152.1829n 
 -412.97475m  699.9998m  152.0525n 
 -412.87475m  699.9998m  151.9220n 
 -412.77475m  699.9998m  151.7916n 
 -412.67475m  699.9998m  151.6612n 
 -412.57475m  699.9998m  151.5308n 
 -412.47475m  699.9998m  151.4005n 
 -412.37475m  699.9998m  151.2702n 
 -412.27475m  699.9998m  151.1399n 
 -412.17475m  699.9998m  151.0097n 
 -412.07475m  699.9998m  150.8794n 
 -411.97475m  699.9998m  150.7492n 
 -411.87475m  699.9998m  150.6191n 
 -411.77475m  699.9998m  150.4889n 
 -411.67475m  699.9998m  150.3588n 
 -411.57475m  699.9998m  150.2287n 
 -411.47475m  699.9998m  150.0986n 
 -411.37475m  699.9998m  149.9686n 
 -411.27475m  699.9998m  149.8386n 
 -411.17475m  699.9998m  149.7086n 
 -411.07475m  699.9998m  149.5787n 
 -410.97475m  699.9998m  149.4488n 
 -410.87475m  699.9998m  149.3189n 
 -410.77475m  699.9998m  149.1890n 
 -410.67475m  699.9998m  149.0592n 
 -410.57475m  699.9998m  148.9294n 
 -410.47475m  699.9998m  148.7996n 
 -410.37475m  699.9998m  148.6698n 
 -410.27475m  699.9998m  148.5401n 
 -410.17475m  699.9998m  148.4104n 
 -410.07475m  699.9998m  148.2808n 
 -409.97475m  699.9998m  148.1511n 
 -409.87475m  699.9998m  148.0215n 
 -409.77475m  699.9998m  147.8919n 
 -409.67475m  699.9998m  147.7624n 
 -409.57475m  699.9998m  147.6329n 
 -409.47475m  699.9998m  147.5034n 
 -409.37475m  699.9998m  147.3739n 
 -409.27475m  699.9998m  147.2445n 
 -409.17475m  699.9998m  147.1151n 
 -409.07475m  699.9998m  146.9857n 
 -408.97475m  699.9998m  146.8564n 
 -408.87475m  699.9999m  146.7270n 
 -408.77475m  699.9999m  146.5978n 
 -408.67475m  699.9999m  146.4685n 
 -408.57475m  699.9999m  146.3393n 
 -408.47475m  699.9999m  146.2101n 
 -408.37475m  699.9999m  146.0809n 
 -408.27475m  699.9999m  145.9518n 
 -408.17475m  699.9999m  145.8227n 
 -408.07475m  699.9999m  145.6936n 
 -407.97475m  699.9999m  145.5645n 
 -407.87475m  699.9999m  145.4355n 
 -407.77475m  699.9999m  145.3065n 
 -407.67475m  699.9999m  145.1776n 
 -407.57475m  699.9999m  145.0487n 
 -407.47475m  699.9999m  144.9198n 
 -407.37475m  699.9999m  144.7909n 
 -407.27475m  699.9999m  144.6621n 
 -407.17475m  699.9999m  144.5333n 
 -407.07475m  699.9999m  144.4045n 
 -406.97475m  699.9999m  144.2757n 
 -406.87475m  699.9999m  144.1470n 
 -406.77475m  699.9999m  144.0184n 
 -406.67475m  699.9999m  143.8897n 
 -406.57475m  699.9999m  143.7611n 
 -406.47475m  699.9999m  143.6325n 
 -406.37475m  699.9999m  143.5039n 
 -406.27475m  699.9999m  143.3754n 
 -406.17475m  699.9999m  143.2469n 
 -406.07475m  699.9999m  143.1185n 
 -405.97475m  699.9999m  142.9900n 
 -405.87475m  699.9999m  142.8616n 
 -405.77475m  699.9999m  142.7332n 
 -405.67475m  699.9999m  142.6049n 
 -405.57475m  699.9999m  142.4766n 
 -405.47475m  699.9999m  142.3483n 
 -405.37475m  699.9999m  142.2201n 
 -405.27475m  699.9999m  142.0919n 
 -405.17475m  699.9999m  141.9637n 
 -405.07475m  699.9999m  141.8355n 
 -404.97475m  699.9999m  141.7074n 
 -404.87475m  699.9999m  141.5793n 
 -404.77475m  699.9999m  141.4513n 
 -404.67475m  699.9999m  141.3233n 
 -404.57475m  699.9999m  141.1953n 
 -404.47475m  699.9999m  141.0673n 
 -404.37475m  699.9999m  140.9394n 
 -404.27475m  699.9999m  140.8115n 
 -404.17475m  699.9999m  140.6836n 
 -404.07475m  699.9999m  140.5558n 
 -403.97475m  699.9999m  140.4280n 
 -403.87475m  699.9999m  140.3002n 
 -403.77475m  699.9999m  140.1725n 
 -403.67475m  699.9999m  140.0448n 
 -403.57475m  699.9999m  139.9171n 
 -403.47475m  699.9999m  139.7895n 
 -403.37475m  699.9999m  139.6619n 
 -403.27475m  699.9999m  139.5343n 
 -403.17475m  699.9999m  139.4068n 
 -403.07475m  699.9999m  139.2793n 
 -402.97475m  699.9999m  139.1518n 
 -402.87475m  699.9999m  139.0244n 
 -402.77475m  699.9999m  138.8970n 
 -402.67475m  699.9999m  138.7696n 
 -402.57475m  699.9999m  138.6423n 
 -402.47475m  699.9999m  138.5150n 
 -402.37475m  699.9999m  138.3877n 
 -402.27475m  699.9999m  138.2605n 
 -402.17475m  699.9999m  138.1333n 
 -402.07475m  699.9999m  138.0061n 
 -401.97475m  699.9999m  137.8790n 
 -401.87475m  699.9999m  137.7519n 
 -401.77475m  699.9999m  137.6248n 
 -401.67475m  699.9999m  137.4978n 
 -401.57475m  699.9999m  137.3708n 
 -401.47475m  699.9999m  137.2438n 
 -401.37475m  699.9999m  137.1169n 
 -401.27475m  699.9999m  136.9900n 
 -401.17475m  699.9999m  136.8631n 
 -401.07475m  699.9999m  136.7363n 
 -400.97475m  699.9999m  136.6095n 
 -400.87475m  699.9999m  136.4827n 
 -400.77475m  699.9999m  136.3560n 
 -400.67475m  699.9999m  136.2293n 
 -400.57475m  699.9999m  136.1026n 
 -400.47475m  699.9999m  135.9760n 
 -400.37475m  699.9999m  135.8494n 
 -400.27475m  699.9999m  135.7229n 
 -400.17475m  699.9999m  135.5964n 
 -400.07475m  699.9999m  135.4699n 
 -399.97475m  699.9999m  135.3434n 
 -399.87475m  699.9999m  135.2170n 
 -399.77475m  699.9999m  135.0906n 
 -399.67475m  699.9999m  134.9643n 
 -399.57475m  699.9999m  134.8380n 
 -399.47475m  699.9999m  134.7117n 
 -399.37475m  699.9999m  134.5855n 
 -399.27475m  699.9999m  134.4592n 
 -399.17475m  699.9999m  134.3331n 
 -399.07475m  699.9999m  134.2069n 
 -398.97475m  699.9999m  134.0808n 
 -398.87475m  699.9999m  133.9548n 
 -398.77475m  699.9999m  133.8287n 
 -398.67475m  699.9999m  133.7028n 
 -398.57475m  699.9999m  133.5768n 
 -398.47475m  699.9999m  133.4509n 
 -398.37475m  699.9999m  133.3250n 
 -398.27475m  699.9999m  133.1991n 
 -398.17475m  699.9999m  133.0733n 
 -398.07475m  699.9999m  132.9476n 
 -397.97475m  699.9999m  132.8218n 
 -397.87475m  699.9999m  132.6961n 
 -397.77475m  699.9999m  132.5704n 
 -397.67475m  699.9999m  132.4448n 
 -397.57475m  699.9999m  132.3192n 
 -397.47475m  699.9999m  132.1936n 
 -397.37475m  699.9999m  132.0681n 
 -397.27475m  699.9999m  131.9426n 
 -397.17475m  699.9999m  131.8172n 
 -397.07475m  699.9999m  131.6918n 
 -396.97475m  699.9999m  131.5664n 
 -396.87475m  699.9999m  131.4410n 
 -396.77475m  699.9999m  131.3157n 
 -396.67475m  699.9999m  131.1905n 
 -396.57475m  699.9999m  131.0652n 
 -396.47475m  699.9999m  130.9400n 
 -396.37475m  699.9999m  130.8149n 
 -396.27475m  699.9999m  130.6898n 
 -396.17475m  699.9999m  130.5647n 
 -396.07475m  699.9999m  130.4396n 
 -395.97475m  699.9999m  130.3146n 
 -395.87475m  699.9999m  130.1896n 
 -395.77475m  699.9999m  130.0647n 
 -395.67475m  699.9999m  129.9398n 
 -395.57475m  699.9999m  129.8149n 
 -395.47475m  699.9999m  129.6901n 
 -395.37475m  699.9999m  129.5653n 
 -395.27475m  699.9999m  129.4406n 
 -395.17475m  699.9999m  129.3159n 
 -395.07475m  699.9999m  129.1912n 
 -394.97475m  699.9999m  129.0666n 
 -394.87475m  699.9999m  128.9420n 
 -394.77475m  699.9999m  128.8174n 
 -394.67475m  699.9999m  128.6929n 
 -394.57475m  699.9999m  128.5684n 
 -394.47475m  699.9999m  128.4440n 
 -394.37475m  699.9999m  128.3196n 
 -394.27475m  699.9999m  128.1952n 
 -394.17475m  699.9999m  128.0709n 
 -394.07475m  699.9999m  127.9466n 
 -393.97475m  699.9999m  127.8223n 
 -393.87475m  699.9999m  127.6981n 
 -393.77475m  699.9999m  127.5739n 
 -393.67475m  699.9999m  127.4498n 
 -393.57475m  699.9999m  127.3257n 
 -393.47475m  699.9999m  127.2016n 
 -393.37475m  699.9999m  127.0776n 
 -393.27475m  699.9999m  126.9536n 
 -393.17475m  699.9999m  126.8297n 
 -393.07475m  699.9999m  126.7058n 
 -392.97475m  699.9999m  126.5819n 
 -392.87475m  699.9999m  126.4581n 
 -392.77475m  699.9999m  126.3343n 
 -392.67475m  699.9999m  126.2105n 
 -392.57475m  699.9999m  126.0868n 
 -392.47475m  699.9999m  125.9631n 
 -392.37475m  699.9999m  125.8395n 
 -392.27475m  699.9999m  125.7159n 
 -392.17475m  699.9999m  125.5923n 
 -392.07475m  699.9999m  125.4688n 
 -391.97475m  699.9999m  125.3454n 
 -391.87475m  699.9999m  125.2219n 
 -391.77475m  699.9999m  125.0985n 
 -391.67475m  699.9999m  124.9752n 
 -391.57475m  699.9999m  124.8519n 
 -391.47475m  699.9999m  124.7286n 
 -391.37475m  699.9999m  124.6053n 
 -391.27475m  699.9999m  124.4821n 
 -391.17475m  699.9999m  124.3590n 
 -391.07475m  699.9999m  124.2359n 
 -390.97475m  699.9999m  124.1128n 
 -390.87475m  699.9999m  123.9897n 
 -390.77475m  699.9999m  123.8668n 
 -390.67475m  699.9999m  123.7438n 
 -390.57475m  699.9999m  123.6209n 
 -390.47475m  699.9999m  123.4980n 
 -390.37475m  699.9999m  123.3752n 
 -390.27475m  699.9999m  123.2524n 
 -390.17475m  699.9999m  123.1296n 
 -390.07475m  699.9999m  123.0069n 
 -389.97475m  699.9999m  122.8842n 
 -389.87475m  699.9999m  122.7616n 
 -389.77475m  699.9999m  122.6390n 
 -389.67475m  699.9999m  122.5164n 
 -389.57475m  699.9999m  122.3939n 
 -389.47475m  699.9999m  122.2715n 
 -389.37475m  699.9999m  122.1490n 
 -389.27475m  699.9999m  122.0267n 
 -389.17475m  699.9999m  121.9043n 
 -389.07475m  699.9999m  121.7820n 
 -388.97475m  699.9999m  121.6597n 
 -388.87475m  699.9999m  121.5375n 
 -388.77475m  699.9999m  121.4153n 
 -388.67475m  699.9999m  121.2932n 
 -388.57475m  699.9999m  121.1711n 
 -388.47475m  699.9999m  121.0490n 
 -388.37475m  699.9999m  120.9270n 
 -388.27475m  699.9999m  120.8050n 
 -388.17475m  699.9999m  120.6831n 
 -388.07475m  699.9999m  120.5612n 
 -387.97475m  699.9999m  120.4394n 
 -387.87475m  699.9999m  120.3176n 
 -387.77475m  699.9999m  120.1958n 
 -387.67475m  699.9999m  120.0741n 
 -387.57475m  699.9999m  119.9524n 
 -387.47475m  699.9999m  119.8308n 
 -387.37475m  699.9999m  119.7092n 
 -387.27475m  699.9999m  119.5876n 
 -387.17475m  699.9999m  119.4661n 
 -387.07475m  699.9999m  119.3446n 
 -386.97475m  699.9999m  119.2232n 
 -386.87475m  699.9999m  119.1018n 
 -386.77475m  699.9999m  118.9805n 
 -386.67475m  699.9999m  118.8592n 
 -386.57475m  699.9999m  118.7379n 
 -386.47475m  699.9999m  118.6167n 
 -386.37475m  699.9999m  118.4955n 
 -386.27475m  699.9999m  118.3744n 
 -386.17475m  699.9999m  118.2533n 
 -386.07475m  699.9999m  118.1323n 
 -385.97475m  699.9999m  118.0113n 
 -385.87475m  699.9999m  117.8903n 
 -385.77475m  699.9999m  117.7694n 
 -385.67475m  699.9999m  117.6485n 
 -385.57475m  699.9999m  117.5277n 
 -385.47475m  699.9999m  117.4069n 
 -385.37475m  699.9999m  117.2861n 
 -385.27475m  699.9999m  117.1654n 
 -385.17475m  699.9999m  117.0448n 
 -385.07475m  699.9999m  116.9242n 
 -384.97475m  699.9999m  116.8036n 
 -384.87475m  699.9999m  116.6831n 
 -384.77475m  699.9999m  116.5626n 
 -384.67475m  699.9999m  116.4422n 
 -384.57475m  699.9999m  116.3218n 
 -384.47475m  699.9999m  116.2014n 
 -384.37475m  699.9999m  116.0811n 
 -384.27475m  699.9999m  115.9608n 
 -384.17475m  699.9999m  115.8406n 
 -384.07475m  699.9999m  115.7205n 
 -383.97475m  699.9999m  115.6003n 
 -383.87475m  699.9999m  115.4802n 
 -383.77475m  699.9999m  115.3602n 
 -383.67475m  699.9999m  115.2402n 
 -383.57475m  699.9999m  115.1202n 
 -383.47475m  699.9999m  115.0003n 
 -383.37475m  699.9999m  114.8805n 
 -383.27475m  699.9999m  114.7606n 
 -383.17475m  699.9999m  114.6409n 
 -383.07475m  699.9999m  114.5211n 
 -382.97475m  699.9999m  114.4014n 
 -382.87475m  699.9999m  114.2818n 
 -382.77475m  699.9999m  114.1622n 
 -382.67475m  699.9999m  114.0426n 
 -382.57475m  699.9999m  113.9231n 
 -382.47475m  699.9999m  113.8037n 
 -382.37475m  699.9999m  113.6843n 
 -382.27475m  699.9999m  113.5649n 
 -382.17475m  699.9999m  113.4456n 
 -382.07475m  699.9999m  113.3263n 
 -381.97475m  699.9999m  113.2070n 
 -381.87475m  699.9999m  113.0878n 
 -381.77475m  699.9999m  112.9687n 
 -381.67475m  699.9999m  112.8496n 
 -381.57475m  699.9999m  112.7305n 
 -381.47475m  699.9999m  112.6115n 
 -381.37475m  699.9999m  112.4926n 
 -381.27475m  699.9999m  112.3736n 
 -381.17475m  699.9999m  112.2548n 
 -381.07475m  699.9999m  112.1359n 
 -380.97475m  699.9999m  112.0171n 
 -380.87475m  699.9999m  111.8984n 
 -380.77475m  699.9999m  111.7797n 
 -380.67475m  699.9999m  111.6611n 
 -380.57475m  699.9999m  111.5425n 
 -380.47475m  699.9999m  111.4239n 
 -380.37475m  699.9999m  111.3054n 
 -380.27475m  699.9999m  111.1869n 
 -380.17475m  699.9999m  111.0685n 
 -380.07475m  699.9999m  110.9501n 
 -379.97475m  699.9999m  110.8318n 
 -379.87475m  699.9999m  110.7135n 
 -379.77475m  699.9999m  110.5953n 
 -379.67475m  699.9999m  110.4771n 
 -379.57475m  699.9999m  110.3590n 
 -379.47475m  699.9999m  110.2409n 
 -379.37475m  699.9999m  110.1229n 
 -379.27475m  699.9999m  110.0049n 
 -379.17475m  699.9999m  109.8869n 
 -379.07475m  699.9999m  109.7690n 
 -378.97475m  699.9999m  109.6511n 
 -378.87475m  699.9999m  109.5333n 
 -378.77475m  699.9999m  109.4156n 
 -378.67475m  699.9999m  109.2978n 
 -378.57475m  699.9999m  109.1802n 
 -378.47475m  699.9999m  109.0626n 
 -378.37475m  699.9999m  108.9450n 
 -378.27475m  699.9999m  108.8274n 
 -378.17475m  699.9999m  108.7100n 
 -378.07475m  699.9999m  108.5925n 
 -377.97475m  699.9999m  108.4751n 
 -377.87475m  699.9999m  108.3578n 
 -377.77475m  699.9999m  108.2405n 
 -377.67475m  699.9999m  108.1233n 
 -377.57475m  699.9999m  108.0061n 
 -377.47475m  699.9999m  107.8889n 
 -377.37475m  699.9999m  107.7718n 
 -377.27475m  699.9999m  107.6548n 
 -377.17475m  699.9999m  107.5378n 
 -377.07475m  699.9999m  107.4208n 
 -376.97475m  699.9999m  107.3039n 
 -376.87475m  699.9999m  107.1870n 
 -376.77475m  699.9999m  107.0702n 
 -376.67475m  699.9999m  106.9534n 
 -376.57475m  699.9999m  106.8367n 
 -376.47475m  699.9999m  106.7200n 
 -376.37475m  699.9999m  106.6034n 
 -376.27475m  699.9999m  106.4869n 
 -376.17475m  699.9999m  106.3703n 
 -376.07475m  699.9999m  106.2538n 
 -375.97475m  699.9999m  106.1374n 
 -375.87475m  699.9999m  106.0210n 
 -375.77475m  699.9999m  105.9047n 
 -375.67475m  699.9999m  105.7884n 
 -375.57475m  699.9999m  105.6722n 
 -375.47475m  699.9999m  105.5560n 
 -375.37475m  699.9999m  105.4399n 
 -375.27475m  699.9999m  105.3238n 
 -375.17475m  699.9999m  105.2077n 
 -375.07475m  699.9999m  105.0917n 
 -374.97475m  699.9999m  104.9758n 
 -374.87475m  699.9999m  104.8599n 
 -374.77475m  699.9999m  104.7441n 
 -374.67475m  699.9999m  104.6283n 
 -374.57475m  699.9999m  104.5125n 
 -374.47475m  699.9999m  104.3968n 
 -374.37475m  699.9999m  104.2812n 
 -374.27475m  699.9999m  104.1656n 
 -374.17475m  699.9999m  104.0500n 
 -374.07475m  699.9999m  103.9345n 
 -373.97475m  699.9999m  103.8191n 
 -373.87475m  699.9999m  103.7037n 
 -373.77475m  699.9999m  103.5883n 
 -373.67475m  699.9999m  103.4730n 
 -373.57475m  699.9999m  103.3578n 
 -373.47475m  699.9999m  103.2426n 
 -373.37475m  699.9999m  103.1274n 
 -373.27475m  699.9999m  103.0123n 
 -373.17475m  699.9999m  102.8973n 
 -373.07475m  699.9999m  102.7823n 
 -372.97475m  699.9999m  102.6673n 
 -372.87475m  699.9999m  102.5524n 
 -372.77475m  699.9999m  102.4376n 
 -372.67475m  699.9999m  102.3228n 
 -372.57475m  699.9999m  102.2080n 
 -372.47475m  699.9999m  102.0933n 
 -372.37475m  699.9999m  101.9787n 
 -372.27475m  699.9999m  101.8641n 
 -372.17475m  699.9999m  101.7495n 
 -372.07475m  699.9999m  101.6350n 
 -371.97475m  699.9999m  101.5206n 
 -371.87475m  699.9999m  101.4062n 
 -371.77475m  699.9999m  101.2918n 
 -371.67475m  699.9999m  101.1775n 
 -371.57475m  699.9999m  101.0633n 
 -371.47475m  699.9999m  100.9491n 
 -371.37475m  699.9999m  100.8349n 
 -371.27475m  699.9999m  100.7208n 
 -371.17475m  699.9999m  100.6068n 
 -371.07475m  699.9999m  100.4928n 
 -370.97475m  699.9999m  100.3789n 
 -370.87475m  699.9999m  100.2650n 
 -370.77475m  699.9999m  100.1511n 
 -370.67475m  699.9999m  100.0374n 
 -370.57475m  699.9999m   99.9236n 
 -370.47475m  699.9999m   99.8099n 
 -370.37475m  699.9999m   99.6963n 
 -370.27475m  699.9999m   99.5827n 
 -370.17475m  699.9999m   99.4692n 
 -370.07475m  699.9999m   99.3557n 
 -369.97475m  699.9999m   99.2423n 
 -369.87475m  699.9999m   99.1289n 
 -369.77475m  699.9999m   99.0156n 
 -369.67475m  699.9999m   98.9023n 
 -369.57475m  699.9999m   98.7891n 
 -369.47475m  699.9999m   98.6759n 
 -369.37475m  699.9999m   98.5628n 
 -369.27475m  699.9999m   98.4497n 
 -369.17475m  699.9999m   98.3367n 
 -369.07475m  699.9999m   98.2238n 
 -368.97475m  699.9999m   98.1109n 
 -368.87475m  699.9999m   97.9980n 
 -368.77475m  699.9999m   97.8852n 
 -368.67475m  699.9999m   97.7724n 
 -368.57475m  699.9999m   97.6597n 
 -368.47475m  699.9999m   97.5471n 
 -368.37475m  699.9999m   97.4345n 
 -368.27475m  699.9999m   97.3220n 
 -368.17475m  699.9999m   97.2095n 
 -368.07475m  699.9999m   97.0970n 
 -367.97475m  699.9999m   96.9846n 
 -367.87475m  699.9999m   96.8723n 
 -367.77475m  699.9999m   96.7600n 
 -367.67475m  699.9999m   96.6478n 
 -367.57475m  699.9999m   96.5356n 
 -367.47475m  699.9999m   96.4235n 
 -367.37475m  699.9999m   96.3114n 
 -367.27475m  699.9999m   96.1994n 
 -367.17475m  699.9999m   96.0875n 
 -367.07475m  699.9999m   95.9756n 
 -366.97475m  699.9999m   95.8637n 
 -366.87475m  699.9999m   95.7519n 
 -366.77475m  699.9999m   95.6401n 
 -366.67475m  699.9999m   95.5285n 
 -366.57475m  699.9999m   95.4168n 
 -366.47475m  699.9999m   95.3052n 
 -366.37475m  699.9999m   95.1937n 
 -366.27475m  699.9999m   95.0822n 
 -366.17475m  699.9999m   94.9708n 
 -366.07475m  699.9999m   94.8594n 
 -365.97475m  699.9999m   94.7481n 
 -365.87475m  699.9999m   94.6368n 
 -365.77475m  699.9999m   94.5256n 
 -365.67475m  699.9999m   94.4144n 
 -365.57475m  699.9999m   94.3033n 
 -365.47475m  699.9999m   94.1923n 
 -365.37475m  699.9999m   94.0813n 
 -365.27475m  699.9999m   93.9703n 
 -365.17475m  699.9999m   93.8594n 
 -365.07475m  699.9999m   93.7486n 
 -364.97475m  699.9999m   93.6378n 
 -364.87475m  699.9999m   93.5271n 
 -364.77475m  699.9999m   93.4164n 
 -364.67475m  699.9999m   93.3058n 
 -364.57475m  699.9999m   93.1952n 
 -364.47475m  699.9999m   93.0847n 
 -364.37475m  699.9999m   92.9742n 
 -364.27475m  699.9999m   92.8638n 
 -364.17475m  699.9999m   92.7535n 
 -364.07475m  699.9999m   92.6432n 
 -363.97475m  699.9999m   92.5329n 
 -363.87475m  699.9999m   92.4228n 
 -363.77475m  699.9999m   92.3126n 
 -363.67475m  699.9999m   92.2026n 
 -363.57475m  699.9999m   92.0925n 
 -363.47475m  699.9999m   91.9826n 
 -363.37475m  699.9999m   91.8727n 
 -363.27475m  699.9999m   91.7628n 
 -363.17475m  699.9999m   91.6530n 
 -363.07475m  699.9999m   91.5432n 
 -362.97475m  699.9999m   91.4336n 
 -362.87475m  699.9999m   91.3239n 
 -362.77475m  699.9999m   91.2143n 
 -362.67475m  699.9999m   91.1048n 
 -362.57475m  699.9999m   90.9953n 
 -362.47475m  699.9999m   90.8859n 
 -362.37475m  699.9999m   90.7766n 
 -362.27475m  699.9999m   90.6673n 
 -362.17475m  699.9999m   90.5580n 
 -362.07475m  699.9999m   90.4488n 
 -361.97475m  699.9999m   90.3397n 
 -361.87475m  699.9999m   90.2306n 
 -361.77475m  699.9999m   90.1216n 
 -361.67475m  699.9999m   90.0126n 
 -361.57475m  699.9999m   89.9037n 
 -361.47475m  699.9999m   89.7948n 
 -361.37475m  699.9999m   89.6860n 
 -361.27475m  699.9999m   89.5773n 
 -361.17475m  699.9999m   89.4686n 
 -361.07475m  699.9999m   89.3599n 
 -360.97475m  699.9999m   89.2514n 
 -360.87475m  699.9999m   89.1428n 
 -360.77475m  699.9999m   89.0344n 
 -360.67475m  699.9999m   88.9260n 
 -360.57475m  699.9999m   88.8176n 
 -360.47475m  699.9999m   88.7093n 
 -360.37475m  699.9999m   88.6011n 
 -360.27475m  699.9999m   88.4929n 
 -360.17475m  699.9999m   88.3847n 
 -360.07475m  699.9999m   88.2767n 
 -359.97475m  699.9999m   88.1686n 
 -359.87475m  699.9999m   88.0607n 
 -359.77475m  699.9999m   87.9528n 
 -359.67475m  699.9999m   87.8449n 
 -359.57475m  699.9999m   87.7371n 
 -359.47475m  699.9999m   87.6294n 
 -359.37475m  699.9999m   87.5217n 
 -359.27475m  699.9999m   87.4141n 
 -359.17475m  699.9999m   87.3065n 
 -359.07475m  699.9999m   87.1990n 
 -358.97475m  699.9999m   87.0916n 
 -358.87475m  699.9999m   86.9842n 
 -358.77475m  699.9999m   86.8769n 
 -358.67475m  699.9999m   86.7696n 
 -358.57475m  699.9999m   86.6624n 
 -358.47475m  699.9999m   86.5552n 
 -358.37475m  699.9999m   86.4481n 
 -358.27475m  699.9999m   86.3410n 
 -358.17475m  699.9999m   86.2341n 
 -358.07475m  699.9999m   86.1271n 
 -357.97475m  699.9999m   86.0202n 
 -357.87475m  699.9999m   85.9134n 
 -357.77475m  699.9999m   85.8067n 
 -357.67475m  699.9999m   85.7000n 
 -357.57475m  699.9999m   85.5933n 
 -357.47475m  699.9999m   85.4867n 
 -357.37475m  699.9999m   85.3802n 
 -357.27475m  699.9999m   85.2737n 
 -357.17475m  699.9999m   85.1673n 
 -357.07475m  699.9999m   85.0609n 
 -356.97475m  699.9999m   84.9546n 
 -356.87475m  699.9999m   84.8484n 
 -356.77475m  699.9999m   84.7422n 
 -356.67475m  699.9999m   84.6361n 
 -356.57475m  699.9999m   84.5300n 
 -356.47475m  699.9999m   84.4240n 
 -356.37475m  699.9999m   84.3181n 
 -356.27475m  699.9999m   84.2122n 
 -356.17475m  699.9999m   84.1063n 
 -356.07475m  699.9999m   84.0005n 
 -355.97475m  699.9999m   83.8948n 
 -355.87475m  699.9999m   83.7892n 
 -355.77475m  699.9999m   83.6836n 
 -355.67475m  699.9999m   83.5780n 
 -355.57475m  699.9999m   83.4725n 
 -355.47475m  699.9999m   83.3671n 
 -355.37475m  699.9999m   83.2617n 
 -355.27475m  699.9999m   83.1564n 
 -355.17475m  699.9999m   83.0512n 
 -355.07475m  699.9999m   82.9460n 
 -354.97475m  699.9999m   82.8409n 
 -354.87475m  699.9999m   82.7358n 
 -354.77475m  699.9999m   82.6308n 
 -354.67475m  699.9999m   82.5258n 
 -354.57475m  699.9999m   82.4209n 
 -354.47475m  699.9999m   82.3161n 
 -354.37475m  699.9999m   82.2113n 
 -354.27475m  699.9999m   82.1066n 
 -354.17475m  699.9999m   82.0019n 
 -354.07475m  699.9999m   81.8973n 
 -353.97475m  699.9999m   81.7928n 
 -353.87475m  699.9999m   81.6883n 
 -353.77475m  699.9999m   81.5839n 
 -353.67475m  699.9999m   81.4795n 
 -353.57475m  699.9999m   81.3752n 
 -353.47475m  699.9999m   81.2710n 
 -353.37475m  699.9999m   81.1668n 
 -353.27475m  699.9999m   81.0627n 
 -353.17475m  699.9999m   80.9586n 
 -353.07475m  699.9999m   80.8546n 
 -352.97475m  699.9999m   80.7506n 
 -352.87475m  699.9999m   80.6467n 
 -352.77475m  699.9999m   80.5429n 
 -352.67475m  699.9999m   80.4392n 
 -352.57475m  699.9999m   80.3354n 
 -352.47475m  699.9999m   80.2318n 
 -352.37475m  699.9999m   80.1282n 
 -352.27475m  699.9999m   80.0247n 
 -352.17475m  699.9999m   79.9212n 
 -352.07475m  699.9999m   79.8178n 
 -351.97475m  699.9999m   79.7145n 
 -351.87475m  699.9999m   79.6112n 
 -351.77475m  699.9999m   79.5079n 
 -351.67475m  699.9999m   79.4048n 
 -351.57475m  699.9999m   79.3017n 
 -351.47475m  699.9999m   79.1986n 
 -351.37475m  699.9999m   79.0956n 
 -351.27475m  699.9999m   78.9927n 
 -351.17475m  699.9999m   78.8898n 
 -351.07475m  699.9999m   78.7870n 
 -350.97475m  699.9999m   78.6843n 
 -350.87475m  699.9999m   78.5816n 
 -350.77475m  699.9999m   78.4790n 
 -350.67475m  699.9999m   78.3764n 
 -350.57475m  699.9999m   78.2739n 
 -350.47475m  699.9999m   78.1715n 
 -350.37475m  699.9999m   78.0691n 
 -350.27475m  699.9999m   77.9668n 
 -350.17475m  699.9999m   77.8645n 
 -350.07475m  699.9999m   77.7623n 
 -349.97475m  699.9999m   77.6602n 
 -349.87475m  699.9999m   77.5581n 
 -349.77475m  699.9999m   77.4561n 
 -349.67475m  699.9999m   77.3542n 
 -349.57475m  699.9999m   77.2523n 
 -349.47475m  699.9999m   77.1504n 
 -349.37475m  699.9999m   77.0487n 
 -349.27475m  699.9999m   76.9470n 
 -349.17475m  699.9999m   76.8453n 
 -349.07475m  699.9999m   76.7437n 
 -348.97475m  699.9999m   76.6422n 
 -348.87475m  699.9999m   76.5407n 
 -348.77475m  699.9999m   76.4393n 
 -348.67475m  699.9999m   76.3380n 
 -348.57475m  699.9999m   76.2367n 
 -348.47475m  699.9999m   76.1355n 
 -348.37475m  699.9999m   76.0344n 
 -348.27475m  699.9999m   75.9333n 
 -348.17475m  699.9999m   75.8322n 
 -348.07475m  699.9999m   75.7313n 
 -347.97475m  699.9999m   75.6304n 
 -347.87475m  699.9999m   75.5295n 
 -347.77475m  699.9999m   75.4287n 
 -347.67475m  699.9999m   75.3280n 
 -347.57475m  699.9999m   75.2274n 
 -347.47475m  699.9999m   75.1268n 
 -347.37475m  699.9999m   75.0262n 
 -347.27475m  699.9999m   74.9257n 
 -347.17475m  699.9999m   74.8253n 
 -347.07475m  699.9999m   74.7250n 
 -346.97475m  699.9999m   74.6247n 
 -346.87475m  699.9999m   74.5245n 
 -346.77475m  699.9999m   74.4243n 
 -346.67475m  699.9999m   74.3242n 
 -346.57475m  699.9999m   74.2242n 
 -346.47475m  699.9999m   74.1242n 
 -346.37475m  699.9999m   74.0243n 
 -346.27475m  699.9999m   73.9244n 
 -346.17475m  699.9999m   73.8247n 
 -346.07475m  699.9999m   73.7249n 
 -345.97475m  699.9999m   73.6253n 
 -345.87475m  699.9999m   73.5257n 
 -345.77475m  699.9999m   73.4261n 
 -345.67475m  699.9999m   73.3267n 
 -345.57475m  699.9999m   73.2273n 
 -345.47475m  699.9999m   73.1279n 
 -345.37475m  699.9999m   73.0286n 
 -345.27475m  699.9999m   72.9294n 
 -345.17475m  699.9999m   72.8302n 
 -345.07475m  699.9999m   72.7311n 
 -344.97475m  699.9999m   72.6321n 
 -344.87475m  699.9999m   72.5331n 
 -344.77475m  699.9999m   72.4342n 
 -344.67475m  699.9999m   72.3354n 
 -344.57475m  699.9999m   72.2366n 
 -344.47475m  699.9999m   72.1379n 
 -344.37475m  699.9999m   72.0392n 
 -344.27475m  699.9999m   71.9406n 
 -344.17475m  699.9999m   71.8421n 
 -344.07475m  699.9999m   71.7437n 
 -343.97475m  699.9999m   71.6453n 
 -343.87475m  699.9999m   71.5469n 
 -343.77475m  699.9999m   71.4486n 
 -343.67475m  699.9999m   71.3504n 
 -343.57475m  699.9999m   71.2523n 
 -343.47475m  699.9999m   71.1542n 
 -343.37475m  699.9999m   71.0562n 
 -343.27475m  699.9999m   70.9582n 
 -343.17475m  699.9999m   70.8603n 
 -343.07475m  699.9999m   70.7625n 
 -342.97475m  699.9999m   70.6648n 
 -342.87475m  699.9999m   70.5671n 
 -342.77475m  699.9999m   70.4694n 
 -342.67475m  699.9999m   70.3718n 
 -342.57475m  699.9999m   70.2743n 
 -342.47475m  699.9999m   70.1769n 
 -342.37475m  699.9999m   70.0795n 
 -342.27475m  699.9999m   69.9822n 
 -342.17475m  699.9999m   69.8849n 
 -342.07475m  699.9999m   69.7878n 
 -341.97475m  699.9999m   69.6906n 
 -341.87475m  699.9999m   69.5936n 
 -341.77475m  699.9999m   69.4966n 
 -341.67475m  699.9999m   69.3997n 
 -341.57475m  699.9999m   69.3028n 
 -341.47475m  699.9999m   69.2060n 
 -341.37475m  699.9999m   69.1092n 
 -341.27475m  699.9999m   69.0126n 
 -341.17475m  699.9999m   68.9160n 
 -341.07475m  699.9999m   68.8194n 
 -340.97475m  699.9999m   68.7229n 
 -340.87475m  699.9999m   68.6265n 
 -340.77475m  699.9999m   68.5302n 
 -340.67475m  699.9999m   68.4339n 
 -340.57475m  699.9999m   68.3377n 
 -340.47475m  699.9999m   68.2415n 
 -340.37475m  699.9999m   68.1454n 
 -340.27475m  699.9999m   68.0494n 
 -340.17475m  699.9999m   67.9534n 
 -340.07475m  699.9999m   67.8575n 
 -339.97475m  699.9999m   67.7617n 
 -339.87475m  699.9999m   67.6659n 
 -339.77475m  699.9999m   67.5702n 
 -339.67475m  699.9999m   67.4746n 
 -339.57475m  699.9999m   67.3790n 
 -339.47475m  699.9999m   67.2835n 
 -339.37475m  699.9999m   67.1881n 
 -339.27475m  699.9999m   67.0927n 
 -339.17475m  699.9999m   66.9974n 
 -339.07475m  699.9999m   66.9022n 
 -338.97475m  699.9999m   66.8070n 
 -338.87475m  699.9999m   66.7119n 
 -338.77475m  699.9999m   66.6168n 
 -338.67475m  699.9999m   66.5218n 
 -338.57475m  699.9999m   66.4269n 
 -338.47475m  699.9999m   66.3321n 
 -338.37475m  699.9999m   66.2373n 
 -338.27475m  699.9999m   66.1426n 
 -338.17475m  699.9999m   66.0479n 
 -338.07475m  699.9999m   65.9533n 
 -337.97475m  699.9999m   65.8588n 
 -337.87475m  699.9999m   65.7643n 
 -337.77475m  699.9999m   65.6699n 
 -337.67475m  699.9999m   65.5756n 
 -337.57475m  699.9999m   65.4813n 
 -337.47475m  699.9999m   65.3872n 
 -337.37475m  699.9999m   65.2930n 
 -337.27475m  699.9999m   65.1990n 
 -337.17475m  699.9999m   65.1050n 
 -337.07475m  699.9999m   65.0110n 
 -336.97475m  699.9999m   64.9172n 
 -336.87475m  699.9999m   64.8234n 
 -336.77475m  699.9999m   64.7296n 
 -336.67475m  699.9999m   64.6360n 
 -336.57475m  699.9999m   64.5424n 
 -336.47475m  699.9999m   64.4488n 
 -336.37475m  699.9999m   64.3554n 
 -336.27475m  699.9999m   64.2620n 
 -336.17475m  699.9999m   64.1686n 
 -336.07475m  699.9999m   64.0754n 
 -335.97475m  699.9999m   63.9822n 
 -335.87475m  699.9999m   63.8890n 
 -335.77475m  699.9999m   63.7959n 
 -335.67475m  699.9999m   63.7029n 
 -335.57475m  699.9999m   63.6100n 
 -335.47475m  699.9999m   63.5171n 
 -335.37475m  699.9999m   63.4243n 
 -335.27475m  699.9999m   63.3316n 
 -335.17475m  699.9999m   63.2389n 
 -335.07475m  699.9999m   63.1463n 
 -334.97475m  699.9999m   63.0538n 
 -334.87475m  699.9999m   62.9613n 
 -334.77475m  699.9999m   62.8689n 
 -334.67475m  699.9999m   62.7766n 
 -334.57475m  699.9999m   62.6843n 
 -334.47475m  699.9999m   62.5921n 
 -334.37475m  699.9999m   62.5000n 
 -334.27475m  699.9999m   62.4079n 
 -334.17475m  699.9999m   62.3159n 
 -334.07475m  699.9999m   62.2240n 
 -333.97475m  699.9999m   62.1321n 
 -333.87475m  699.9999m   62.0403n 
 -333.77475m  699.9999m   61.9485n 
 -333.67475m  699.9999m   61.8569n 
 -333.57475m  699.9999m   61.7653n 
 -333.47475m  699.9999m   61.6737n 
 -333.37475m  699.9999m   61.5823n 
 -333.27475m  699.9999m   61.4909n 
 -333.17475m  699.9999m   61.3996n 
 -333.07475m  699.9999m   61.3083n 
 -332.97475m  699.9999m   61.2171n 
 -332.87475m  699.9999m   61.1260n 
 -332.77475m  699.9999m   61.0349n 
 -332.67475m  699.9999m   60.9439n 
 -332.57475m  699.9999m   60.8530n 
 -332.47475m  699.9999m   60.7621n 
 -332.37475m  699.9999m   60.6713n 
 -332.27475m  699.9999m   60.5806n 
 -332.17475m  699.9999m   60.4900n 
 -332.07475m  699.9999m   60.3994n 
 -331.97475m  699.9999m   60.3089n 
 -331.87475m  699.9999m   60.2184n 
 -331.77475m  699.9999m   60.1280n 
 -331.67475m  699.9999m   60.0377n 
 -331.57475m  699.9999m   59.9474n 
 -331.47475m  700.0000m   59.8573n 
 -331.37475m  700.0000m   59.7672n 
 -331.27475m  700.0000m   59.6771n 
 -331.17475m  700.0000m   59.5871n 
 -331.07475m  700.0000m   59.4972n 
 -330.97475m  700.0000m   59.4074n 
 -330.87475m  700.0000m   59.3176n 
 -330.77475m  700.0000m   59.2279n 
 -330.67475m  700.0000m   59.1383n 
 -330.57475m  700.0000m   59.0487n 
 -330.47475m  700.0000m   58.9592n 
 -330.37475m  700.0000m   58.8698n 
 -330.27475m  700.0000m   58.7804n 
 -330.17475m  700.0000m   58.6911n 
 -330.07475m  700.0000m   58.6019n 
 -329.97475m  700.0000m   58.5127n 
 -329.87475m  700.0000m   58.4236n 
 -329.77475m  700.0000m   58.3346n 
 -329.67475m  700.0000m   58.2456n 
 -329.57475m  700.0000m   58.1568n 
 -329.47475m  700.0000m   58.0679n 
 -329.37475m  700.0000m   57.9792n 
 -329.27475m  700.0000m   57.8905n 
 -329.17475m  700.0000m   57.8019n 
 -329.07475m  700.0000m   57.7134n 
 -328.97475m  700.0000m   57.6249n 
 -328.87475m  700.0000m   57.5365n 
 -328.77475m  700.0000m   57.4481n 
 -328.67475m  700.0000m   57.3599n 
 -328.57475m  700.0000m   57.2717n 
 -328.47475m  700.0000m   57.1835n 
 -328.37475m  700.0000m   57.0955n 
 -328.27475m  700.0000m   57.0075n 
 -328.17475m  700.0000m   56.9196n 
 -328.07475m  700.0000m   56.8317n 
 -327.97475m  700.0000m   56.7439n 
 -327.87475m  700.0000m   56.6562n 
 -327.77475m  700.0000m   56.5686n 
 -327.67475m  700.0000m   56.4810n 
 -327.57475m  700.0000m   56.3935n 
 -327.47475m  700.0000m   56.3060n 
 -327.37475m  700.0000m   56.2187n 
 -327.27475m  700.0000m   56.1314n 
 -327.17475m  700.0000m   56.0441n 
 -327.07475m  700.0000m   55.9570n 
 -326.97475m  700.0000m   55.8699n 
 -326.87475m  700.0000m   55.7828n 
 -326.77475m  700.0000m   55.6959n 
 -326.67475m  700.0000m   55.6090n 
 -326.57475m  700.0000m   55.5222n 
 -326.47475m  700.0000m   55.4354n 
 -326.37475m  700.0000m   55.3487n 
 -326.27475m  700.0000m   55.2621n 
 -326.17475m  700.0000m   55.1756n 
 -326.07475m  700.0000m   55.0891n 
 -325.97475m  700.0000m   55.0027n 
 -325.87475m  700.0000m   54.9164n 
 -325.77475m  700.0000m   54.8301n 
 -325.67475m  700.0000m   54.7439n 
 -325.57475m  700.0000m   54.6578n 
 -325.47475m  700.0000m   54.5718n 
 -325.37475m  700.0000m   54.4858n 
 -325.27475m  700.0000m   54.3999n 
 -325.17475m  700.0000m   54.3140n 
 -325.07475m  700.0000m   54.2282n 
 -324.97475m  700.0000m   54.1425n 
 -324.87475m  700.0000m   54.0569n 
 -324.77475m  700.0000m   53.9713n 
 -324.67475m  700.0000m   53.8858n 
 -324.57475m  700.0000m   53.8004n 
 -324.47475m  700.0000m   53.7150n 
 -324.37475m  700.0000m   53.6298n 
 -324.27475m  700.0000m   53.5445n 
 -324.17475m  700.0000m   53.4594n 
 -324.07475m  700.0000m   53.3743n 
 -323.97475m  700.0000m   53.2893n 
 -323.87475m  700.0000m   53.2044n 
 -323.77475m  700.0000m   53.1195n 
 -323.67475m  700.0000m   53.0347n 
 -323.57475m  700.0000m   52.9500n 
 -323.47475m  700.0000m   52.8653n 
 -323.37475m  700.0000m   52.7808n 
 -323.27475m  700.0000m   52.6962n 
 -323.17475m  700.0000m   52.6118n 
 -323.07475m  700.0000m   52.5274n 
 -322.97475m  700.0000m   52.4431n 
 -322.87475m  700.0000m   52.3589n 
 -322.77475m  700.0000m   52.2747n 
 -322.67475m  700.0000m   52.1906n 
 -322.57475m  700.0000m   52.1066n 
 -322.47475m  700.0000m   52.0227n 
 -322.37475m  700.0000m   51.9388n 
 -322.27475m  700.0000m   51.8550n 
 -322.17475m  700.0000m   51.7712n 
 -322.07475m  700.0000m   51.6876n 
 -321.97475m  700.0000m   51.6040n 
 -321.87475m  700.0000m   51.5204n 
 -321.77475m  700.0000m   51.4370n 
 -321.67475m  700.0000m   51.3536n 
 -321.57475m  700.0000m   51.2703n 
 -321.47475m  700.0000m   51.1870n 
 -321.37475m  700.0000m   51.1038n 
 -321.27475m  700.0000m   51.0207n 
 -321.17475m  700.0000m   50.9377n 
 -321.07475m  700.0000m   50.8547n 
 -320.97475m  700.0000m   50.7718n 
 -320.87475m  700.0000m   50.6890n 
 -320.77475m  700.0000m   50.6063n 
 -320.67475m  700.0000m   50.5236n 
 -320.57475m  700.0000m   50.4410n 
 -320.47475m  700.0000m   50.3584n 
 -320.37475m  700.0000m   50.2760n 
 -320.27475m  700.0000m   50.1936n 
 -320.17475m  700.0000m   50.1113n 
 -320.07475m  700.0000m   50.0290n 
 -319.97475m  700.0000m   49.9468n 
 -319.87475m  700.0000m   49.8647n 
 -319.77475m  700.0000m   49.7827n 
 -319.67475m  700.0000m   49.7007n 
 -319.57475m  700.0000m   49.6188n 
 -319.47475m  700.0000m   49.5370n 
 -319.37475m  700.0000m   49.4552n 
 -319.27475m  700.0000m   49.3735n 
 -319.17475m  700.0000m   49.2919n 
 -319.07475m  700.0000m   49.2104n 
 -318.97475m  700.0000m   49.1289n 
 -318.87475m  700.0000m   49.0475n 
 -318.77475m  700.0000m   48.9662n 
 -318.67475m  700.0000m   48.8849n 
 -318.57475m  700.0000m   48.8037n 
 -318.47475m  700.0000m   48.7226n 
 -318.37475m  700.0000m   48.6416n 
 -318.27475m  700.0000m   48.5606n 
 -318.17475m  700.0000m   48.4797n 
 -318.07475m  700.0000m   48.3989n 
 -317.97475m  700.0000m   48.3181n 
 -317.87475m  700.0000m   48.2374n 
 -317.77475m  700.0000m   48.1568n 
 -317.67475m  700.0000m   48.0763n 
 -317.57475m  700.0000m   47.9958n 
 -317.47475m  700.0000m   47.9154n 
 -317.37475m  700.0000m   47.8351n 
 -317.27475m  700.0000m   47.7548n 
 -317.17475m  700.0000m   47.6746n 
 -317.07475m  700.0000m   47.5945n 
 -316.97475m  700.0000m   47.5145n 
 -316.87475m  700.0000m   47.4345n 
 -316.77475m  700.0000m   47.3546n 
 -316.67475m  700.0000m   47.2748n 
 -316.57475m  700.0000m   47.1950n 
 -316.47475m  700.0000m   47.1154n 
 -316.37475m  700.0000m   47.0357n 
 -316.27475m  700.0000m   46.9562n 
 -316.17475m  700.0000m   46.8767n 
 -316.07475m  700.0000m   46.7973n 
 -315.97475m  700.0000m   46.7180n 
 -315.87475m  700.0000m   46.6388n 
 -315.77475m  700.0000m   46.5596n 
 -315.67475m  700.0000m   46.4805n 
 -315.57475m  700.0000m   46.4015n 
 -315.47475m  700.0000m   46.3225n 
 -315.37475m  700.0000m   46.2436n 
 -315.27475m  700.0000m   46.1648n 
 -315.17475m  700.0000m   46.0860n 
 -315.07475m  700.0000m   46.0074n 
 -314.97475m  700.0000m   45.9288n 
 -314.87475m  700.0000m   45.8502n 
 -314.77475m  700.0000m   45.7718n 
 -314.67475m  700.0000m   45.6934n 
 -314.57475m  700.0000m   45.6151n 
 -314.47475m  700.0000m   45.5368n 
 -314.37475m  700.0000m   45.4587n 
 -314.27475m  700.0000m   45.3806n 
 -314.17475m  700.0000m   45.3025n 
 -314.07475m  700.0000m   45.2246n 
 -313.97475m  700.0000m   45.1467n 
 -313.87475m  700.0000m   45.0689n 
 -313.77475m  700.0000m   44.9912n 
 -313.67475m  700.0000m   44.9135n 
 -313.57475m  700.0000m   44.8359n 
 -313.47475m  700.0000m   44.7584n 
 -313.37475m  700.0000m   44.6810n 
 -313.27475m  700.0000m   44.6036n 
 -313.17475m  700.0000m   44.5263n 
 -313.07475m  700.0000m   44.4491n 
 -312.97475m  700.0000m   44.3719n 
 -312.87475m  700.0000m   44.2948n 
 -312.77475m  700.0000m   44.2178n 
 -312.67475m  700.0000m   44.1409n 
 -312.57475m  700.0000m   44.0640n 
 -312.47475m  700.0000m   43.9872n 
 -312.37475m  700.0000m   43.9105n 
 -312.27475m  700.0000m   43.8339n 
 -312.17475m  700.0000m   43.7573n 
 -312.07475m  700.0000m   43.6808n 
 -311.97475m  700.0000m   43.6043n 
 -311.87475m  700.0000m   43.5280n 
 -311.77475m  700.0000m   43.4517n 
 -311.67475m  700.0000m   43.3755n 
 -311.57475m  700.0000m   43.2994n 
 -311.47475m  700.0000m   43.2233n 
 -311.37475m  700.0000m   43.1473n 
 -311.27475m  700.0000m   43.0714n 
 -311.17475m  700.0000m   42.9955n 
 -311.07475m  700.0000m   42.9198n 
 -310.97475m  700.0000m   42.8441n 
 -310.87475m  700.0000m   42.7684n 
 -310.77475m  700.0000m   42.6929n 
 -310.67475m  700.0000m   42.6174n 
 -310.57475m  700.0000m   42.5420n 
 -310.47475m  700.0000m   42.4667n 
 -310.37475m  700.0000m   42.3914n 
 -310.27475m  700.0000m   42.3162n 
 -310.17475m  700.0000m   42.2411n 
 -310.07475m  700.0000m   42.1660n 
 -309.97475m  700.0000m   42.0911n 
 -309.87475m  700.0000m   42.0162n 
 -309.77475m  700.0000m   41.9413n 
 -309.67475m  700.0000m   41.8666n 
 -309.57475m  700.0000m   41.7919n 
 -309.47475m  700.0000m   41.7173n 
 -309.37475m  700.0000m   41.6428n 
 -309.27475m  700.0000m   41.5683n 
 -309.17475m  700.0000m   41.4939n 
 -309.07475m  700.0000m   41.4196n 
 -308.97475m  700.0000m   41.3454n 
 -308.87475m  700.0000m   41.2712n 
 -308.77475m  700.0000m   41.1971n 
 -308.67475m  700.0000m   41.1231n 
 -308.57475m  700.0000m   41.0492n 
 -308.47475m  700.0000m   40.9753n 
 -308.37475m  700.0000m   40.9015n 
 -308.27475m  700.0000m   40.8278n 
 -308.17475m  700.0000m   40.7541n 
 -308.07475m  700.0000m   40.6805n 
 -307.97475m  700.0000m   40.6070n 
 -307.87475m  700.0000m   40.5336n 
 -307.77475m  700.0000m   40.4602n 
 -307.67475m  700.0000m   40.3869n 
 -307.57475m  700.0000m   40.3137n 
 -307.47475m  700.0000m   40.2406n 
 -307.37475m  700.0000m   40.1675n 
 -307.27475m  700.0000m   40.0945n 
 -307.17475m  700.0000m   40.0216n 
 -307.07475m  700.0000m   39.9488n 
 -306.97475m  700.0000m   39.8760n 
 -306.87475m  700.0000m   39.8033n 
 -306.77475m  700.0000m   39.7307n 
 -306.67475m  700.0000m   39.6581n 
 -306.57475m  700.0000m   39.5856n 
 -306.47475m  700.0000m   39.5132n 
 -306.37475m  700.0000m   39.4409n 
 -306.27475m  700.0000m   39.3686n 
 -306.17475m  700.0000m   39.2964n 
 -306.07475m  700.0000m   39.2243n 
 -305.97475m  700.0000m   39.1523n 
 -305.87475m  700.0000m   39.0803n 
 -305.77475m  700.0000m   39.0084n 
 -305.67475m  700.0000m   38.9366n 
 -305.57475m  700.0000m   38.8649n 
 -305.47475m  700.0000m   38.7932n 
 -305.37475m  700.0000m   38.7216n 
 -305.27475m  700.0000m   38.6501n 
 -305.17475m  700.0000m   38.5787n 
 -305.07475m  700.0000m   38.5073n 
 -304.97475m  700.0000m   38.4360n 
 -304.87475m  700.0000m   38.3648n 
 -304.77475m  700.0000m   38.2936n 
 -304.67475m  700.0000m   38.2225n 
 -304.57475m  700.0000m   38.1515n 
 -304.47475m  700.0000m   38.0806n 
 -304.37475m  700.0000m   38.0097n 
 -304.27475m  700.0000m   37.9389n 
 -304.17475m  700.0000m   37.8682n 
 -304.07475m  700.0000m   37.7976n 
 -303.97475m  700.0000m   37.7270n 
 -303.87475m  700.0000m   37.6566n 
 -303.77475m  700.0000m   37.5861n 
 -303.67475m  700.0000m   37.5158n 
 -303.57475m  700.0000m   37.4455n 
 -303.47475m  700.0000m   37.3753n 
 -303.37475m  700.0000m   37.3052n 
 -303.27475m  700.0000m   37.2352n 
 -303.17475m  700.0000m   37.1652n 
 -303.07475m  700.0000m   37.0953n 
 -302.97475m  700.0000m   37.0255n 
 -302.87475m  700.0000m   36.9557n 
 -302.77475m  700.0000m   36.8861n 
 -302.67475m  700.0000m   36.8165n 
 -302.57475m  700.0000m   36.7469n 
 -302.47475m  700.0000m   36.6775n 
 -302.37475m  700.0000m   36.6081n 
 -302.27475m  700.0000m   36.5388n 
 -302.17475m  700.0000m   36.4696n 
 -302.07475m  700.0000m   36.4004n 
 -301.97475m  700.0000m   36.3313n 
 -301.87475m  700.0000m   36.2623n 
 -301.77475m  700.0000m   36.1934n 
 -301.67475m  700.0000m   36.1245n 
 -301.57475m  700.0000m   36.0557n 
 -301.47475m  700.0000m   35.9870n 
 -301.37475m  700.0000m   35.9184n 
 -301.27475m  700.0000m   35.8498n 
 -301.17475m  700.0000m   35.7813n 
 -301.07475m  700.0000m   35.7129n 
 -300.97475m  700.0000m   35.6446n 
 -300.87475m  700.0000m   35.5763n 
 -300.77475m  700.0000m   35.5081n 
 -300.67475m  700.0000m   35.4400n 
 -300.57475m  700.0000m   35.3720n 
 -300.47475m  700.0000m   35.3040n 
 -300.37475m  700.0000m   35.2361n 
 -300.27475m  700.0000m   35.1683n 
 -300.17475m  700.0000m   35.1005n 
 -300.07475m  700.0000m   35.0329n 
 -299.97475m  700.0000m   34.9653n 
 -299.87475m  700.0000m   34.8977n 
 -299.77475m  700.0000m   34.8303n 
 -299.67475m  700.0000m   34.7629n 
 -299.57475m  700.0000m   34.6956n 
 -299.47475m  700.0000m   34.6284n 
 -299.37475m  700.0000m   34.5612n 
 -299.27475m  700.0000m   34.4942n 
 -299.17475m  700.0000m   34.4271n 
 -299.07475m  700.0000m   34.3602n 
 -298.97475m  700.0000m   34.2934n 
 -298.87475m  700.0000m   34.2266n 
 -298.77475m  700.0000m   34.1599n 
 -298.67475m  700.0000m   34.0932n 
 -298.57475m  700.0000m   34.0267n 
 -298.47475m  700.0000m   33.9602n 
 -298.37475m  700.0000m   33.8938n 
 -298.27475m  700.0000m   33.8275n 
 -298.17475m  700.0000m   33.7612n 
 -298.07475m  700.0000m   33.6950n 
 -297.97475m  700.0000m   33.6289n 
 -297.87475m  700.0000m   33.5629n 
 -297.77475m  700.0000m   33.4969n 
 -297.67475m  700.0000m   33.4310n 
 -297.57475m  700.0000m   33.3652n 
 -297.47475m  700.0000m   33.2995n 
 -297.37475m  700.0000m   33.2338n 
 -297.27475m  700.0000m   33.1682n 
 -297.17475m  700.0000m   33.1027n 
 -297.07475m  700.0000m   33.0372n 
 -296.97475m  700.0000m   32.9719n 
 -296.87475m  700.0000m   32.9066n 
 -296.77475m  700.0000m   32.8414n 
 -296.67475m  700.0000m   32.7762n 
 -296.57475m  700.0000m   32.7111n 
 -296.47475m  700.0000m   32.6461n 
 -296.37475m  700.0000m   32.5812n 
 -296.27475m  700.0000m   32.5164n 
 -296.17475m  700.0000m   32.4516n 
 -296.07475m  700.0000m   32.3869n 
 -295.97475m  700.0000m   32.3223n 
 -295.87475m  700.0000m   32.2577n 
 -295.77475m  700.0000m   32.1933n 
 -295.67475m  700.0000m   32.1289n 
 -295.57475m  700.0000m   32.0645n 
 -295.47475m  700.0000m   32.0003n 
 -295.37475m  700.0000m   31.9361n 
 -295.27475m  700.0000m   31.8720n 
 -295.17475m  700.0000m   31.8080n 
 -295.07475m  700.0000m   31.7440n 
 -294.97475m  700.0000m   31.6802n 
 -294.87475m  700.0000m   31.6164n 
 -294.77475m  700.0000m   31.5526n 
 -294.67475m  700.0000m   31.4890n 
 -294.57475m  700.0000m   31.4254n 
 -294.47475m  700.0000m   31.3619n 
 -294.37475m  700.0000m   31.2985n 
 -294.27475m  700.0000m   31.2351n 
 -294.17475m  700.0000m   31.1718n 
 -294.07475m  700.0000m   31.1086n 
 -293.97475m  700.0000m   31.0455n 
 -293.87475m  700.0000m   30.9824n 
 -293.77475m  700.0000m   30.9194n 
 -293.67475m  700.0000m   30.8565n 
 -293.57475m  700.0000m   30.7937n 
 -293.47475m  700.0000m   30.7309n 
 -293.37475m  700.0000m   30.6683n 
 -293.27475m  700.0000m   30.6056n 
 -293.17475m  700.0000m   30.5431n 
 -293.07475m  700.0000m   30.4806n 
 -292.97475m  700.0000m   30.4183n 
 -292.87475m  700.0000m   30.3559n 
 -292.77475m  700.0000m   30.2937n 
 -292.67475m  700.0000m   30.2315n 
 -292.57475m  700.0000m   30.1695n 
 -292.47475m  700.0000m   30.1074n 
 -292.37475m  700.0000m   30.0455n 
 -292.27475m  700.0000m   29.9836n 
 -292.17475m  700.0000m   29.9219n 
 -292.07475m  700.0000m   29.8601n 
 -291.97475m  700.0000m   29.7985n 
 -291.87475m  700.0000m   29.7369n 
 -291.77475m  700.0000m   29.6754n 
 -291.67475m  700.0000m   29.6140n 
 -291.57475m  700.0000m   29.5527n 
 -291.47475m  700.0000m   29.4914n 
 -291.37475m  700.0000m   29.4302n 
 -291.27475m  700.0000m   29.3691n 
 -291.17475m  700.0000m   29.3081n 
 -291.07475m  700.0000m   29.2471n 
 -290.97475m  700.0000m   29.1862n 
 -290.87475m  700.0000m   29.1254n 
 -290.77475m  700.0000m   29.0646n 
 -290.67475m  700.0000m   29.0040n 
 -290.57475m  700.0000m   28.9434n 
 -290.47475m  700.0000m   28.8828n 
 -290.37475m  700.0000m   28.8224n 
 -290.27475m  700.0000m   28.7620n 
 -290.17475m  700.0000m   28.7017n 
 -290.07475m  700.0000m   28.6415n 
 -289.97475m  700.0000m   28.5814n 
 -289.87475m  700.0000m   28.5213n 
 -289.77475m  700.0000m   28.4613n 
 -289.67475m  700.0000m   28.4014n 
 -289.57475m  700.0000m   28.3415n 
 -289.47475m  700.0000m   28.2817n 
 -289.37475m  700.0000m   28.2220n 
 -289.27475m  700.0000m   28.1624n 
 -289.17475m  700.0000m   28.1029n 
 -289.07475m  700.0000m   28.0434n 
 -288.97475m  700.0000m   27.9840n 
 -288.87475m  700.0000m   27.9247n 
 -288.77475m  700.0000m   27.8654n 
 -288.67475m  700.0000m   27.8062n 
 -288.57475m  700.0000m   27.7471n 
 -288.47475m  700.0000m   27.6881n 
 -288.37475m  700.0000m   27.6291n 
 -288.27475m  700.0000m   27.5703n 
 -288.17475m  700.0000m   27.5115n 
 -288.07475m  700.0000m   27.4527n 
 -287.97475m  700.0000m   27.3941n 
 -287.87475m  700.0000m   27.3355n 
 -287.77475m  700.0000m   27.2770n 
 -287.67475m  700.0000m   27.2185n 
 -287.57475m  700.0000m   27.1602n 
 -287.47475m  700.0000m   27.1019n 
 -287.37475m  700.0000m   27.0437n 
 -287.27475m  700.0000m   26.9856n 
 -287.17475m  700.0000m   26.9275n 
 -287.07475m  700.0000m   26.8695n 
 -286.97475m  700.0000m   26.8116n 
 -286.87475m  700.0000m   26.7538n 
 -286.77475m  700.0000m   26.6960n 
 -286.67475m  700.0000m   26.6383n 
 -286.57475m  700.0000m   26.5807n 
 -286.47475m  700.0000m   26.5232n 
 -286.37475m  700.0000m   26.4657n 
 -286.27475m  700.0000m   26.4083n 
 -286.17475m  700.0000m   26.3510n 
 -286.07475m  700.0000m   26.2938n 
 -285.97475m  700.0000m   26.2366n 
 -285.87475m  700.0000m   26.1795n 
 -285.77475m  700.0000m   26.1225n 
 -285.67475m  700.0000m   26.0656n 
 -285.57475m  700.0000m   26.0087n 
 -285.47475m  700.0000m   25.9519n 
 -285.37475m  700.0000m   25.8952n 
 -285.27475m  700.0000m   25.8385n 
 -285.17475m  700.0000m   25.7820n 
 -285.07475m  700.0000m   25.7255n 
 -284.97475m  700.0000m   25.6690n 
 -284.87475m  700.0000m   25.6127n 
 -284.77475m  700.0000m   25.5564n 
 -284.67475m  700.0000m   25.5002n 
 -284.57475m  700.0000m   25.4441n 
 -284.47475m  700.0000m   25.3881n 
 -284.37475m  700.0000m   25.3321n 
 -284.27475m  700.0000m   25.2762n 
 -284.17475m  700.0000m   25.2204n 
 -284.07475m  700.0000m   25.1646n 
 -283.97475m  700.0000m   25.1089n 
 -283.87475m  700.0000m   25.0533n 
 -283.77475m  700.0000m   24.9978n 
 -283.67475m  700.0000m   24.9424n 
 -283.57475m  700.0000m   24.8870n 
 -283.47475m  700.0000m   24.8317n 
 -283.37475m  700.0000m   24.7764n 
 -283.27475m  700.0000m   24.7213n 
 -283.17475m  700.0000m   24.6662n 
 -283.07475m  700.0000m   24.6112n 
 -282.97475m  700.0000m   24.5563n 
 -282.87475m  700.0000m   24.5014n 
 -282.77475m  700.0000m   24.4466n 
 -282.67475m  700.0000m   24.3919n 
 -282.57475m  700.0000m   24.3373n 
 -282.47475m  700.0000m   24.2827n 
 -282.37475m  700.0000m   24.2282n 
 -282.27475m  700.0000m   24.1738n 
 -282.17475m  700.0000m   24.1195n 
 -282.07475m  700.0000m   24.0652n 
 -281.97475m  700.0000m   24.0110n 
 -281.87475m  700.0000m   23.9569n 
 -281.77475m  700.0000m   23.9029n 
 -281.67475m  700.0000m   23.8489n 
 -281.57475m  700.0000m   23.7950n 
 -281.47475m  700.0000m   23.7412n 
 -281.37475m  700.0000m   23.6874n 
 -281.27475m  700.0000m   23.6338n 
 -281.17475m  700.0000m   23.5802n 
 -281.07475m  700.0000m   23.5266n 
 -280.97475m  700.0000m   23.4732n 
 -280.87475m  700.0000m   23.4198n 
 -280.77475m  700.0000m   23.3665n 
 -280.67475m  700.0000m   23.3133n 
 -280.57475m  700.0000m   23.2601n 
 -280.47475m  700.0000m   23.2071n 
 -280.37475m  700.0000m   23.1541n 
 -280.27475m  700.0000m   23.1011n 
 -280.17475m  700.0000m   23.0483n 
 -280.07475m  700.0000m   22.9955n 
 -279.97475m  700.0000m   22.9428n 
 -279.87475m  700.0000m   22.8901n 
 -279.77475m  700.0000m   22.8376n 
 -279.67475m  700.0000m   22.7851n 
 -279.57475m  700.0000m   22.7327n 
 -279.47475m  700.0000m   22.6804n 
 -279.37475m  700.0000m   22.6281n 
 -279.27475m  700.0000m   22.5759n 
 -279.17475m  700.0000m   22.5238n 
 -279.07475m  700.0000m   22.4717n 
 -278.97475m  700.0000m   22.4198n 
 -278.87475m  700.0000m   22.3679n 
 -278.77475m  700.0000m   22.3161n 
 -278.67475m  700.0000m   22.2643n 
 -278.57475m  700.0000m   22.2126n 
 -278.47475m  700.0000m   22.1610n 
 -278.37475m  700.0000m   22.1095n 
 -278.27475m  700.0000m   22.0581n 
 -278.17475m  700.0000m   22.0067n 
 -278.07475m  700.0000m   21.9554n 
 -277.97475m  700.0000m   21.9042n 
 -277.87475m  700.0000m   21.8530n 
 -277.77475m  700.0000m   21.8019n 
 -277.67475m  700.0000m   21.7509n 
 -277.57475m  700.0000m   21.7000n 
 -277.47475m  700.0000m   21.6491n 
 -277.37475m  700.0000m   21.5983n 
 -277.27475m  700.0000m   21.5476n 
 -277.17475m  700.0000m   21.4970n 
 -277.07475m  700.0000m   21.4464n 
 -276.97475m  700.0000m   21.3959n 
 -276.87475m  700.0000m   21.3455n 
 -276.77475m  700.0000m   21.2952n 
 -276.67475m  700.0000m   21.2449n 
[...]
  453.22525m  700.0000m  356.5139f 
  453.32525m  700.0000m  356.6951f 
  453.42525m  700.0000m  356.8764f 
  453.52525m  700.0000m  357.0578f 
  453.62525m  700.0000m  357.2393f 
  453.72525m  700.0000m  357.4208f 
  453.82525m  700.0000m  357.6025f 
  453.92525m  700.0000m  357.7843f 
  454.02525m  700.0000m  357.9662f 
  454.12525m  700.0000m  358.1481f 
  454.22525m  700.0000m  358.3302f 
  454.32525m  700.0000m  358.5124f 
  454.42525m  700.0000m  358.6947f 
  454.52525m  700.0000m  358.8770f 
  454.62525m  700.0000m  359.0595f 
  454.72525m  700.0000m  359.2421f 
  454.82525m  700.0000m  359.4247f 
  454.92525m  700.0000m  359.6075f 
  455.02525m  700.0000m  359.7903f 
  455.12525m  700.0000m  359.9733f 
  455.22525m  700.0000m  360.1564f 
  455.32525m  700.0000m  360.3395f 
  455.42525m  700.0000m  360.5228f 
  455.52525m  700.0000m  360.7062f 
  455.62525m  700.0000m  360.8896f 
  455.72525m  700.0000m  361.0732f 
  455.82525m  700.0000m  361.2568f 
  455.92525m  700.0000m  361.4406f 
  456.02525m  700.0000m  361.6244f 
  456.12525m  700.0000m  361.8084f 
  456.22525m  700.0000m  361.9925f 
  456.32525m  700.0000m  362.1766f 
  456.42525m  700.0000m  362.3609f 
  456.52525m  700.0000m  362.5452f 
  456.62525m  700.0000m  362.7297f 
  456.72525m  700.0000m  362.9143f 
  456.82525m  700.0000m  363.0989f 
  456.92525m  700.0000m  363.2837f 
  457.02525m  700.0000m  363.4686f 
  457.12525m  700.0000m  363.6535f 
  457.22525m  700.0000m  363.8386f 
  457.32525m  700.0000m  364.0238f 
  457.42525m  700.0000m  364.2090f 
  457.52525m  700.0000m  364.3944f 
  457.62525m  700.0000m  364.5799f 
  457.72525m  700.0000m  364.7654f 
  457.82525m  700.0000m  364.9511f 
  457.92525m  700.0000m  365.1369f 
  458.02525m  700.0000m  365.3228f 
  458.12525m  700.0000m  365.5088f 
  458.22525m  700.0000m  365.6948f 
  458.32525m  700.0000m  365.8810f 
  458.42525m  700.0000m  366.0673f 
  458.52525m  700.0000m  366.2537f 
  458.62525m  700.0000m  366.4402f 
  458.72525m  700.0000m  366.6268f 
  458.82525m  700.0000m  366.8135f 
  458.92525m  700.0000m  367.0003f 
  459.02525m  700.0000m  367.1872f 
  459.12525m  700.0000m  367.3742f 
  459.22525m  700.0000m  367.5613f 
  459.32525m  700.0000m  367.7485f 
  459.42525m  700.0000m  367.9358f 
  459.52525m  700.0000m  368.1233f 
  459.62525m  700.0000m  368.3108f 
  459.72525m  700.0000m  368.4984f 
  459.82525m  700.0000m  368.6861f 
  459.92525m  700.0000m  368.8740f 
  460.02525m  700.0000m  369.0619f 
  460.12525m  700.0000m  369.2499f 
  460.22525m  700.0000m  369.4381f 
  460.32525m  700.0000m  369.6263f 
  460.42525m  700.0000m  369.8147f 
  460.52525m  700.0000m  370.0031f 
  460.62525m  700.0000m  370.1917f 
  460.72525m  700.0000m  370.3804f 
  460.82525m  700.0000m  370.5691f 
  460.92525m  700.0000m  370.7580f 
  461.02525m  700.0000m  370.9470f 
  461.12525m  700.0000m  371.1361f 
  461.22525m  700.0000m  371.3253f 
  461.32525m  700.0000m  371.5146f 
  461.42525m  700.0000m  371.7040f 
  461.52525m  700.0000m  371.8935f 
  461.62525m  700.0000m  372.0831f 
  461.72525m  700.0000m  372.2728f 
  461.82525m  700.0000m  372.4626f 
  461.92525m  700.0000m  372.6525f 
  462.02525m  700.0000m  372.8426f 
  462.12525m  700.0000m  373.0327f 
  462.22525m  700.0000m  373.2229f 
  462.32525m  700.0000m  373.4133f 
  462.42525m  700.0000m  373.6038f 
  462.52525m  700.0000m  373.7943f 
  462.62525m  700.0000m  373.9850f 
  462.72525m  700.0000m  374.1758f 
  462.82525m  700.0000m  374.3666f 
  462.92525m  700.0000m  374.5576f 
  463.02525m  700.0000m  374.7487f 
  463.12525m  700.0000m  374.9399f 
  463.22525m  700.0000m  375.1312f 
  463.32525m  700.0000m  375.3226f 
  463.42525m  700.0000m  375.5142f 
  463.52525m  700.0000m  375.7058f 
  463.62525m  700.0000m  375.8975f 
  463.72525m  700.0000m  376.0894f 
  463.82525m  700.0000m  376.2813f 
  463.92525m  700.0000m  376.4734f 
  464.02525m  700.0000m  376.6656f 
  464.12525m  700.0000m  376.8578f 
  464.22525m  700.0000m  377.0502f 
  464.32525m  700.0000m  377.2427f 
  464.42525m  700.0000m  377.4353f 
  464.52525m  700.0000m  377.6280f 
  464.62525m  700.0000m  377.8208f 
  464.72525m  700.0000m  378.0138f 
  464.82525m  700.0000m  378.2068f 
  464.92525m  700.0000m  378.3999f 
  465.02525m  700.0000m  378.5932f 
  465.12525m  700.0000m  378.7865f 
  465.22525m  700.0000m  378.9800f 
  465.32525m  700.0000m  379.1736f 
  465.42525m  700.0000m  379.3673f 
  465.52525m  700.0000m  379.5611f 
  465.62525m  700.0000m  379.7550f 
  465.72525m  700.0000m  379.9490f 
  465.82525m  700.0000m  380.1431f 
  465.92525m  700.0000m  380.3373f 
  466.02525m  700.0000m  380.5317f 
  466.12525m  700.0000m  380.7261f 
  466.22525m  700.0000m  380.9207f 
  466.32525m  700.0000m  381.1154f 
  466.42525m  700.0000m  381.3101f 
  466.52525m  700.0000m  381.5050f 
  466.62525m  700.0000m  381.7000f 
  466.72525m  700.0000m  381.8951f 
  466.82525m  700.0000m  382.0904f 
  466.92525m  700.0000m  382.2857f 
  467.02525m  700.0000m  382.4811f 
  467.12525m  700.0000m  382.6767f 
  467.22525m  700.0000m  382.8724f 
  467.32525m  700.0000m  383.0681f 
  467.42525m  700.0000m  383.2640f 
  467.52525m  700.0000m  383.4600f 
  467.62525m  700.0000m  383.6561f 
  467.72525m  700.0000m  383.8524f 
  467.82525m  700.0000m  384.0487f 
  467.92525m  700.0000m  384.2451f 
  468.02525m  700.0000m  384.4417f 
  468.12525m  700.0000m  384.6384f 
  468.22525m  700.0000m  384.8352f 
  468.32525m  700.0000m  385.0320f 
  468.42525m  700.0000m  385.2291f 
  468.52525m  700.0000m  385.4262f 
  468.62525m  700.0000m  385.6234f 
  468.72525m  700.0000m  385.8207f 
  468.82525m  700.0000m  386.0182f 
  468.92525m  700.0000m  386.2158f 
  469.02525m  700.0000m  386.4134f 
  469.12525m  700.0000m  386.6112f 
  469.22525m  700.0000m  386.8091f 
  469.32525m  700.0000m  387.0072f 
  469.42525m  700.0000m  387.2053f 
  469.52525m  700.0000m  387.4035f 
  469.62525m  700.0000m  387.6019f 
  469.72525m  700.0000m  387.8004f 
  469.82525m  700.0000m  387.9990f 
  469.92525m  700.0000m  388.1977f 
  470.02525m  700.0000m  388.3965f 
  470.12525m  700.0000m  388.5954f 
  470.22525m  700.0000m  388.7944f 
  470.32525m  700.0000m  388.9936f 
  470.42525m  700.0000m  389.1929f 
  470.52525m  700.0000m  389.3923f 
  470.62525m  700.0000m  389.5918f 
  470.72525m  700.0000m  389.7914f 
  470.82525m  700.0000m  389.9911f 
  470.92525m  700.0000m  390.1909f 
  471.02525m  700.0000m  390.3909f 
  471.12525m  700.0000m  390.5910f 
  471.22525m  700.0000m  390.7912f 
  471.32525m  700.0000m  390.9915f 
  471.42525m  700.0000m  391.1919f 
  471.52525m  700.0000m  391.3924f 
  471.62525m  700.0000m  391.5931f 
  471.72525m  700.0000m  391.7938f 
  471.82525m  700.0000m  391.9947f 
  471.92525m  700.0000m  392.1957f 
  472.02525m  700.0000m  392.3968f 
  472.12525m  700.0000m  392.5981f 
  472.22525m  700.0000m  392.7994f 
  472.32525m  700.0000m  393.0009f 
  472.42525m  700.0000m  393.2025f 
  472.52525m  700.0000m  393.4042f 
  472.62525m  700.0000m  393.6060f 
  472.72525m  700.0000m  393.8079f 
  472.82525m  700.0000m  394.0099f 
  472.92525m  700.0000m  394.2121f 
  473.02525m  700.0000m  394.4144f 
  473.12525m  700.0000m  394.6168f 
  473.22525m  700.0000m  394.8193f 
  473.32525m  700.0000m  395.0219f 
  473.42525m  700.0000m  395.2247f 
  473.52525m  700.0000m  395.4275f 
  473.62525m  700.0000m  395.6305f 
  473.72525m  700.0000m  395.8336f 
  473.82525m  700.0000m  396.0368f 
  473.92525m  700.0000m  396.2402f 
  474.02525m  700.0000m  396.4436f 
  474.12525m  700.0000m  396.6472f 
  474.22525m  700.0000m  396.8509f 
  474.32525m  700.0000m  397.0547f 
  474.42525m  700.0000m  397.2587f 
  474.52525m  700.0000m  397.4627f 
  474.62525m  700.0000m  397.6669f 
  474.72525m  700.0000m  397.8712f 
  474.82525m  700.0000m  398.0756f 
  474.92525m  700.0000m  398.2801f 
  475.02525m  700.0000m  398.4847f 
  475.12525m  700.0000m  398.6895f 
  475.22525m  700.0000m  398.8944f 
  475.32525m  700.0000m  399.0994f 
  475.42525m  700.0000m  399.3045f 
  475.52525m  700.0000m  399.5097f 
  475.62525m  700.0000m  399.7151f 
  475.72525m  700.0000m  399.9206f 
  475.82525m  700.0000m  400.1262f 
  475.92525m  700.0000m  400.3319f 
  476.02525m  700.0000m  400.5378f 
  476.12525m  700.0000m  400.7437f 
  476.22525m  700.0000m  400.9498f 
  476.32525m  700.0000m  401.1560f 
  476.42525m  700.0000m  401.3623f 
  476.52525m  700.0000m  401.5688f 
  476.62525m  700.0000m  401.7754f 
  476.72525m  700.0000m  401.9821f 
  476.82525m  700.0000m  402.1889f 
  476.92525m  700.0000m  402.3958f 
  477.02525m  700.0000m  402.6028f 
  477.12525m  700.0000m  402.8100f 
  477.22525m  700.0000m  403.0173f 
  477.32525m  700.0000m  403.2247f 
  477.42525m  700.0000m  403.4323f 
  477.52525m  700.0000m  403.6399f 
  477.62525m  700.0000m  403.8477f 
  477.72525m  700.0000m  404.0556f 
  477.82525m  700.0000m  404.2637f 
  477.92525m  700.0000m  404.4718f 
  478.02525m  700.0000m  404.6801f 
  478.12525m  700.0000m  404.8885f 
  478.22525m  700.0000m  405.0970f 
  478.32525m  700.0000m  405.3057f 
  478.42525m  700.0000m  405.5144f 
  478.52525m  700.0000m  405.7233f 
  478.62525m  700.0000m  405.9323f 
  478.72525m  700.0000m  406.1415f 
  478.82525m  700.0000m  406.3507f 
  478.92525m  700.0000m  406.5601f 
  479.02525m  700.0000m  406.7696f 
  479.12525m  700.0000m  406.9793f 
  479.22525m  700.0000m  407.1890f 
  479.32525m  700.0000m  407.3989f 
  479.42525m  700.0000m  407.6089f 
  479.52525m  700.0000m  407.8190f 
  479.62525m  700.0000m  408.0293f 
  479.72525m  700.0000m  408.2397f 
  479.82525m  700.0000m  408.4502f 
  479.92525m  700.0000m  408.6608f 
  480.02525m  700.0000m  408.8716f 
  480.12525m  700.0000m  409.0824f 
  480.22525m  700.0000m  409.2934f 
  480.32525m  700.0000m  409.5046f 
  480.42525m  700.0000m  409.7158f 
  480.52525m  700.0000m  409.9272f 
  480.62525m  700.0000m  410.1387f 
  480.72525m  700.0000m  410.3503f 
  480.82525m  700.0000m  410.5621f 
  480.92525m  700.0000m  410.7740f 
  481.02525m  700.0000m  410.9860f 
  481.12525m  700.0000m  411.1981f 
  481.22525m  700.0000m  411.4104f 
  481.32525m  700.0000m  411.6228f 
  481.42525m  700.0000m  411.8353f 
  481.52525m  700.0000m  412.0479f 
  481.62525m  700.0000m  412.2607f 
  481.72525m  700.0000m  412.4736f 
  481.82525m  700.0000m  412.6866f 
  481.92525m  700.0000m  412.8998f 
  482.02525m  700.0000m  413.1131f 
  482.12525m  700.0000m  413.3265f 
  482.22525m  700.0000m  413.5400f 
  482.32525m  700.0000m  413.7537f 
  482.42525m  700.0000m  413.9675f 
  482.52525m  700.0000m  414.1814f 
  482.62525m  700.0000m  414.3954f 
  482.72525m  700.0000m  414.6096f 
  482.82525m  700.0000m  414.8239f 
  482.92525m  700.0000m  415.0383f 
  483.02525m  700.0000m  415.2529f 
  483.12525m  700.0000m  415.4676f 
  483.22525m  700.0000m  415.6824f 
  483.32525m  700.0000m  415.8973f 
  483.42525m  700.0000m  416.1124f 
  483.52525m  700.0000m  416.3276f 
  483.62525m  700.0000m  416.5429f 
  483.72525m  700.0000m  416.7584f 
  483.82525m  700.0000m  416.9740f 
  483.92525m  700.0000m  417.1897f 
  484.02525m  700.0000m  417.4056f 
  484.12525m  700.0000m  417.6216f 
  484.22525m  700.0000m  417.8377f 
  484.32525m  700.0000m  418.0539f 
  484.42525m  700.0000m  418.2703f 
  484.52525m  700.0000m  418.4868f 
  484.62525m  700.0000m  418.7034f 
  484.72525m  700.0000m  418.9202f 
  484.82525m  700.0000m  419.1371f 
  484.92525m  700.0000m  419.3541f 
  485.02525m  700.0000m  419.5713f 
  485.12525m  700.0000m  419.7885f 
  485.22525m  700.0000m  420.0060f 
  485.32525m  700.0000m  420.2235f 
  485.42525m  700.0000m  420.4412f 
  485.52525m  700.0000m  420.6590f 
  485.62525m  700.0000m  420.8770f 
  485.72525m  700.0000m  421.0950f 
  485.82525m  700.0000m  421.3132f 
  485.92525m  700.0000m  421.5316f 
  486.02525m  700.0000m  421.7501f 
  486.12525m  700.0000m  421.9687f 
  486.22525m  700.0000m  422.1874f 
  486.32525m  700.0000m  422.4063f 
  486.42525m  700.0000m  422.6253f 
  486.52525m  700.0000m  422.8444f 
  486.62525m  700.0000m  423.0637f 
  486.72525m  700.0000m  423.2831f 
  486.82525m  700.0000m  423.5026f 
  486.92525m  700.0000m  423.7223f 
  487.02525m  700.0000m  423.9421f 
  487.12525m  700.0000m  424.1620f 
  487.22525m  700.0000m  424.3821f 
  487.32525m  700.0000m  424.6023f 
  487.42525m  700.0000m  424.8227f 
  487.52525m  700.0000m  425.0431f 
  487.62525m  700.0000m  425.2637f 
  487.72525m  700.0000m  425.4845f 
  487.82525m  700.0000m  425.7054f 
  487.92525m  700.0000m  425.9264f 
  488.02525m  700.0000m  426.1475f 
  488.12525m  700.0000m  426.3688f 
  488.22525m  700.0000m  426.5902f 
  488.32525m  700.0000m  426.8118f 
  488.42525m  700.0000m  427.0334f 
  488.52525m  700.0000m  427.2553f 
  488.62525m  700.0000m  427.4772f 
  488.72525m  700.0000m  427.6993f 
  488.82525m  700.0000m  427.9215f 
  488.92525m  700.0000m  428.1439f 
  489.02525m  700.0000m  428.3664f 
  489.12525m  700.0000m  428.5890f 
  489.22525m  700.0000m  428.8118f 
  489.32525m  700.0000m  429.0347f 
  489.42525m  700.0000m  429.2578f 
  489.52525m  700.0000m  429.4810f 
  489.62525m  700.0000m  429.7043f 
  489.72525m  700.0000m  429.9277f 
  489.82525m  700.0000m  430.1513f 
  489.92525m  700.0000m  430.3751f 
  490.02525m  700.0000m  430.5989f 
  490.12525m  700.0000m  430.8229f 
  490.22525m  700.0000m  431.0471f 
  490.32525m  700.0000m  431.2714f 
  490.42525m  700.0000m  431.4958f 
  490.52525m  700.0000m  431.7203f 
  490.62525m  700.0000m  431.9450f 
  490.72525m  700.0000m  432.1699f 
  490.82525m  700.0000m  432.3948f 
  490.92525m  700.0000m  432.6199f 
  491.02525m  700.0000m  432.8452f 
  491.12525m  700.0000m  433.0706f 
  491.22525m  700.0000m  433.2961f 
  491.32525m  700.0000m  433.5218f 
  491.42525m  700.0000m  433.7476f 
  491.52525m  700.0000m  433.9735f 
  491.62525m  700.0000m  434.1996f 
  491.72525m  700.0000m  434.4258f 
  491.82525m  700.0000m  434.6522f 
  491.92525m  700.0000m  434.8787f 
  492.02525m  700.0000m  435.1054f 
  492.12525m  700.0000m  435.3321f 
  492.22525m  700.0000m  435.5591f 
  492.32525m  700.0000m  435.7861f 
  492.42525m  700.0000m  436.0133f 
  492.52525m  700.0000m  436.2407f 
  492.62525m  700.0000m  436.4682f 
  492.72525m  700.0000m  436.6958f 
  492.82525m  700.0000m  436.9236f 
  492.92525m  700.0000m  437.1515f 
  493.02525m  700.0000m  437.3795f 
  493.12525m  700.0000m  437.6077f 
  493.22525m  700.0000m  437.8360f 
  493.32525m  700.0000m  438.0645f 
  493.42525m  700.0000m  438.2931f 
  493.52525m  700.0000m  438.5219f 
  493.62525m  700.0000m  438.7508f 
  493.72525m  700.0000m  438.9798f 
  493.82525m  700.0000m  439.2090f 
  493.92525m  700.0000m  439.4384f 
  494.02525m  700.0000m  439.6678f 
  494.12525m  700.0000m  439.8974f 
  494.22525m  700.0000m  440.1272f 
  494.32525m  700.0000m  440.3571f 
  494.42525m  700.0000m  440.5871f 
  494.52525m  700.0000m  440.8173f 
  494.62525m  700.0000m  441.0477f 
  494.72525m  700.0000m  441.2781f 
  494.82525m  700.0000m  441.5088f 
  494.92525m  700.0000m  441.7395f 
y
1****** HSPICE -- Q-2020.03-SP2-2 linux64 (Nov  1 2020) ******                  
 ******  
 .title ex1_1

 ****** operating point information tnom=  25.000 temp=  25.000 ******
 ****** operating point status is all       simulation time is     0.     
    node    =voltage      node    =voltage      node    =voltage

 +0:bl      = 700.0000m 0:blb     = 700.0000m 0:gl      =  47.9486f
 +0:gr      = 700.0000m 0:q       = 700.0000m 0:qb      =  47.9486f
 +0:u       =   0.      0:v1      = 989.9495m 0:v2      =  67.8096f
 +0:vdd     = 700.0000m 0:wl      =   0.     


 **** voltage sources

 subckt                                   
 element  0:vu       0:vvdd     0:vwl     
  volts      0.       700.0000m    0.     
  current    0.        -3.8803p  376.8400f
  power      0.         2.7162p    0.     

     total voltage source power dissipation=    2.7162p       watts



 **** voltage-controlled voltage sources


 subckt                                              
 element  0:eli      0:eri      0:ev1      0:ev2     
  volts    700.0000m   47.9486f  989.9495m   67.8096f
  current -599.8837f  259.9372f    0.         0.     





 **** mosfets


 subckt                                                                    
 element  0:mp_pu1   0:mp_pu2   0:mn_pd1   0:mn_pd2   0:mn_ax1   0:mn_ax2  
 model    0:pmos_sra 0:pmos_sra 0:nmos_sra 0:nmos_sra 0:nmos_sra 0:nmos_sra
 region   Linear     Subth      Cutoff     Linear     Cutoff     Cutoff    
  id       -13.2343a   -3.8124p  678.4893f    7.2725a    0.       678.4893f
  ibs        0.         0.         0.         0.         0.         0.     
  ibd        0.         0.         0.         0.         0.         0.     
  vgs     -700.0000m -118.2388f   47.9486f  700.0000m -700.0000m  -47.9486f
  vds     -118.3498f -700.0000m  700.0000m   47.9486f   76.4944f  700.0000m
  vbs        0.         0.         0.         0.      -700.0000m  -47.9486f
  vth     -339.1310m -328.3087m  406.6380m  410.1164m  410.1164m  406.6380m
  vdsat   -365.6435m  -72.7965m   70.6690m  280.7545m   70.6690m   70.6690m
  vod     -360.8690m  328.3087m -406.6380m  289.8836m   -1.1101  -406.6380m
  beta       1.6413m    1.6413m    2.1736m    2.1736m    2.1736m    2.1736m
  gam eff    0.         0.         0.         0.         0.         0.     
  gm        24.8001a  147.4372p   25.5580p   11.2941a    0.        25.5580p
  gds      111.8328u    3.6592p  516.9705f  151.6694u   32.4348f  516.9705f
  gmb      2.448e-23   42.6094a    7.3861a  1.641e-23    0.         7.3861a
  cdtot     25.3299a   10.2225a   10.2225a   24.7315a   10.2225a   10.2225a
  cgtot     65.7671a   20.4452a   20.4450a   63.9719a   20.4450a   20.4450a
  cstot     25.3299a   10.2226a   10.2225a   24.7315a   10.2225a   10.2225a
  cbtot      0.         0.         0.         0.         0.         0.     
  cgs       32.8836a   10.2227a   10.2225a   31.9859a   10.2225a   10.2225a
  cgd       32.8836a   10.2225a   10.2225a   31.9859a   10.2225a   10.2225a




          ***** job concluded
 ******  
 .title ex1_1

 ****** job statistics summary tnom=  25.000 temp=  25.000 ******
  
 ******  Machine Information  ******
 CPU:
 model name	: AMD EPYC 7713 64-Core Processor
 cpu MHz	: 2000.000
  
 OS:
 Linux version 3.10.0-1160.88.1.el7.x86_64 (mockbuild@kbuilder.bsys.centos.org) (gcc version 4.8.5 20150623 (Red Hat 4.8.5-44) (GCC) ) #1 SMP Tue Mar 7 15:41:52 UTC 2023


  ******  HSPICE Threads Information  ******

  Command Line Threads Count :     1
  Available CPU Count        :   256
  Actual Threads Count       :     1


  ******  Circuit Statistics  ******
  # nodes       =      12 # elements   =      15
  # resistors   =       0 # capacitors =       2 # inductors   =       0
  # mutual_inds =       0 # vccs       =       0 # vcvs        =       4
  # cccs        =       0 # ccvs       =       0 # volt_srcs   =       3
  # curr_srcs   =       0 # diodes     =       0 # bjts        =       0
  # jfets       =       0 # mosfets    =       6 # U elements  =       0
  # T elements  =       0 # W elements =       0 # B elements  =       0
  # S elements  =       0 # P elements =       0 # va device   =       0
  # vector_srcs =       0 # N elements =       0


  ******  Runtime Statistics (seconds)  ******

  analysis           time    # points   tot. iter  conv.iter
  op point           0.01           1           4
  dc sweep           0.72        9900       29701
  readin             0.02
  errchk             0.00
  setup              0.00
  output             0.00


           peak memory used        400.89 megabytes
           total cpu time            0.78 seconds
           total elapsed time        0.96 seconds
           job started at     23:38:39 03/18/2025
           job ended   at     23:38:40 03/18/2025
           job total runtime         0.96 seconds


 lic: Release hspice token(s) 
 lic: total license checkout elapse time:        0.17(s)
