 ****** HSPICE -- Q-2020.03-SP2-2 linux64 (Nov  1 2020) ******                  
  Copyright (c) 1986 - 2025 by Synopsys, Inc. All Rights Reserved.              
  This software and the associated documentation are proprietary
  to Synopsys, Inc. This software may only be used in accordance
  with the terms and conditions of a written license agreement with
  Synopsys, Inc. All other use, reproduction, or distribution of
  this software is strictly prohibited.
  Input File: ex1_1.sp                                                          
  Command line options: /RAID2/cad/synopsys/hspice/2020.03-sp2-2/hspice/linux64/hspice -i ex1_1.sp -o ex1_1.lis
  Start time: Tue Mar 18 22:37:17 2025
 lic:  
 lic: FLEXlm: SDK_12.6 
 lic: USER:   es25MCS042           HOSTNAME: ee28 
 lic: HOSTID: "d85ed3efc19a"       PID:      23812 
 lic: Using FLEXlm license file: 
 lic: 26585@lshc 
 lic: Checkout 1 hspice 
 lic: License/Maintenance for hspice will expire on 14-may-2025/2024.09 
 lic: 212(in_use)/1100(total) FLOATING license(s) on SERVER 26585@lshc 
 lic:   
  
      
             
 Warning:'Floating bulk' occurs 1 times
 Summary of floating bulk:
 -----------------------
 |Node      |Device    |
 |----------+----------|
 |x         |mn_ax1    |
 -----------------------
              
 *****************************************************************
 ******  option summary
 ******
 runlvl  = 3         bypass  = 2.0000    

 **info** rebuilding matrix with pivot option


 **info** rebuilding matrix without pivot option

 ******
 .title ex1_1

 ****** dc transfer curves tnom=  25.000 temp=  25.000 ******
x

 volt         voltage    voltage   
             q          qb         
  494.97475m  700.0000m    0.      
y
1****** HSPICE -- Q-2020.03-SP2-2 linux64 (Nov  1 2020) ******                  
 ******  
 .title ex1_1

 ****** operating point information tnom=  25.000 temp=  25.000 ******
 ****** operating point status is all       simulation time is     0.     
    node    =voltage      node    =voltage      node    =voltage

 +0:bl      = 700.0000m 0:blb     = 700.0000m 0:q       =   0.     
 +0:qb      =   0.      0:u       =   0.      0:v1      =   0.     
 +0:v2      =   0.      0:vdd     = 700.0000m 0:wl      =   0.     
 +0:x       = 668.1225m


 **** voltage sources

 subckt                                   
 element  0:vdd      0:vu       0:vwl     
  volts    700.0000m    0.         0.     
  current  -52.5391u    0.       251.2267f
  power     36.7774u    0.         0.     

     total voltage source power dissipation=   36.7774u       watts



 **** voltage-controlled voltage sources


 subckt                                              
 element  0:eli      0:eri      0:ev1      0:ev2     
  volts      0.         0.         0.         0.     
  current   26.2696u   26.2696u    0.         0.     





 **** mosfets


 subckt                                                                    
 element  0:mp_pu1   0:mp_pu2   0:mn_pd1   0:mn_pd2   0:mn_ax1   0:mn_ax2  
 model    0:pmos_sra 0:pmos_sra 0:nmos_sra 0:nmos_sra 0:nmos_sra 0:nmos_sra
 region   Saturation Saturation Cutoff     Cutoff     Cutoff     Cutoff    
  id       -26.2696u  -26.2696u    0.         0.       678.4965f  678.4965f
  ibs        0.         0.         0.         0.         0.         0.     
  ibd        0.         0.         0.         0.         0.         0.     
  vgs     -700.0000m -700.0000m    0.         0.         0.         0.     
  vds     -700.0000m -700.0000m    0.         0.       700.0000m  700.0000m
  vbs        0.         0.         0.         0.       668.1225m  668.1225m
  vth     -328.3087m -328.3087m  410.1164m  410.1164m  406.6380m  406.6380m
  vdsat   -374.5754m -374.5754m   70.6690m   70.6690m   70.6690m   70.6690m
  vod     -371.6913m -371.6913m -410.1164m -410.1164m -406.6380m -406.6380m
  beta       1.6413m    1.6413m    2.1736m    2.1736m    2.1736m    2.1736m
  gam eff    0.         0.         0.         0.         0.         0.     
  gm        94.1569u   94.1569u    0.         0.        25.5583p   25.5583p
  gds        9.4596u    9.4596u   14.9555p   14.9555p  516.9758f  516.9758f
  gmb       73.5674p   73.5674p    0.         0.        17.4514a   17.4514a
  cdtot     10.2694a   10.2694a   10.2225a   10.2225a   10.2225a   10.2225a
  cgtot     54.7498a   54.7498a   20.4450a   20.4450a   20.4450a   20.4450a
  cstot     30.0435a   30.0435a   10.2225a   10.2225a   10.2225a   10.2225a
  cbtot      0.         0.         0.         0.         0.         0.     
  cgs       44.7571a   44.7571a   10.2225a   10.2225a   10.2225a   10.2225a
  cgd        9.9928a    9.9928a   10.2225a   10.2225a   10.2225a   10.2225a




          ***** job concluded
 ******  
 .title ex1_1

 ****** job statistics summary tnom=  25.000 temp=  25.000 ******
  
 ******  Machine Information  ******
 CPU:
 model name	: AMD EPYC 7713 64-Core Processor
 cpu MHz	: 2000.000
  
 OS:
 Linux version 3.10.0-1160.88.1.el7.x86_64 (mockbuild@kbuilder.bsys.centos.org) (gcc version 4.8.5 20150623 (Red Hat 4.8.5-44) (GCC) ) #1 SMP Tue Mar 7 15:41:52 UTC 2023


  ******  HSPICE Threads Information  ******

  Command Line Threads Count :     1
  Available CPU Count        :   256
  Actual Threads Count       :     1


  ******  Circuit Statistics  ******
  # nodes       =      11 # elements   =      15
  # resistors   =       0 # capacitors =       2 # inductors   =       0
  # mutual_inds =       0 # vccs       =       0 # vcvs        =       4
  # cccs        =       0 # ccvs       =       0 # volt_srcs   =       3
  # curr_srcs   =       0 # diodes     =       0 # bjts        =       0
  # jfets       =       0 # mosfets    =       6 # U elements  =       0
  # T elements  =       0 # W elements =       0 # B elements  =       0
  # S elements  =       0 # P elements =       0 # va device   =       0
  # vector_srcs =       0 # N elements =       0


  ******  Runtime Statistics (seconds)  ******

  analysis           time    # points   tot. iter  conv.iter
  op point           0.01           1          13
  dc sweep           0.00           1          15
  readin             0.01
  errchk             0.00
  setup              0.00
  output             0.00


           peak memory used        400.84 megabytes
           total cpu time            0.03 seconds
           total elapsed time        0.51 seconds
           job started at     22:37:17 03/18/2025
           job ended   at     22:37:17 03/18/2025
           job total runtime         0.51 seconds


 lic: Release hspice token(s) 
 lic: total license checkout elapse time:        0.46(s)
