 ****** HSPICE -- Q-2020.03-SP2-2 linux64 (Nov  1 2020) ******                  
  Copyright (c) 1986 - 2025 by Synopsys, Inc. All Rights Reserved.              
  This software and the associated documentation are proprietary
  to Synopsys, Inc. This software may only be used in accordance
  with the terms and conditions of a written license agreement with
  Synopsys, Inc. All other use, reproduction, or distribution of
  this software is strictly prohibited.
  Input File: ex1_1.sp                                                          
  Command line options: /RAID2/cad/synopsys/hspice/2020.03-sp2-2/hspice/linux64/hspice -i ex1_1.sp -o ex1_1.lis
  Start time: Tue Mar 18 20:44:44 2025
 lic:  
 lic: FLEXlm: SDK_12.6 
 lic: USER:   es25MCS042           HOSTNAME: ee28 
 lic: HOSTID: "d85ed3efc19a"       PID:      204622 
 lic: Using FLEXlm license file: 
 lic: 26585@lshc 
 lic: Checkout 1 hspice 
 lic: License/Maintenance for hspice will expire on 14-may-2025/2024.09 
 lic: 307(in_use)/1100(total) FLOATING license(s) on SERVER 26585@lshc 
 lic:   
  
      
             
 Warning:'Floating bulk' occurs 1 times
 Summary of floating bulk:
 -----------------------
 |Node      |Device    |
 |----------+----------|
 |x         |mp_pu1    |
 -----------------------
              
 *****************************************************************
 ******  option summary
 ******
 runlvl  = 3         bypass  = 2.0000    
 convergence problems in dc sweep curves at  0.21589    
  resimulating with dc convergence controls

 ******
 .title ex1_1

 ****** dc transfer curves tnom=  25.000 temp=  25.000 ******
x

 volt         voltage    voltage   
             q          qb         
 -707.10678m  699.9999m  601.4060n 
 -707.00678m  699.9999m  600.8567n 
 -706.90678m  699.9999m  600.3079n 
 -706.80678m  699.9999m  599.7596n 
 -706.70678m  699.9999m  599.2119n 
 -706.60678m  699.9999m  598.6648n 
 -706.50678m  699.9999m  598.1182n 
 -706.40678m  699.9999m  597.5722n 
 -706.30678m  699.9999m  597.0267n 
 -706.20678m  699.9999m  596.4817n 
 -706.10678m  699.9999m  595.9373n 
 -706.00678m  699.9999m  595.3935n 
 -705.90678m  699.9999m  594.8502n 
 -705.80678m  699.9999m  594.3074n 
 -705.70678m  699.9999m  593.7652n 
 -705.60678m  699.9999m  593.2236n 
 -705.50678m  699.9999m  592.6825n 
 -705.40678m  699.9999m  592.1419n 
 -705.30678m  699.9999m  591.6019n 
 -705.20678m  699.9999m  591.0624n 
 -705.10678m  699.9999m  590.5235n 
 -705.00678m  699.9999m  589.9851n 
 -704.90678m  699.9999m  589.4472n 
 -704.80678m  699.9999m  588.9099n 
 -704.70678m  699.9999m  588.3731n 
 -704.60678m  699.9999m  587.8369n 
 -704.50678m  699.9999m  587.3012n 
 -704.40678m  699.9999m  586.7660n 
 -704.30678m  699.9999m  586.2314n 
 -704.20678m  699.9999m  585.6973n 
 -704.10678m  699.9999m  585.1638n 
 -704.00678m  699.9999m  584.6308n 
 -703.90678m  699.9999m  584.0983n 
 -703.80678m  699.9999m  583.5664n 
 -703.70678m  699.9999m  583.0350n 
 -703.60678m  699.9999m  582.5041n 
 -703.50678m  699.9999m  581.9738n 
 -703.40678m  699.9999m  581.4440n 
 -703.30678m  699.9999m  580.9147n 
 -703.20678m  699.9999m  580.3860n 
 -703.10678m  699.9999m  579.8578n 
 -703.00678m  699.9999m  579.3301n 
 -702.90678m  699.9999m  578.8030n 
 -702.80678m  699.9999m  578.2764n 
 -702.70678m  699.9999m  577.7503n 
 -702.60678m  699.9999m  577.2248n 
 -702.50678m  699.9999m  576.6997n 
 -702.40678m  699.9999m  576.1752n 
 -702.30678m  699.9999m  575.6513n 
 -702.20678m  699.9999m  575.1278n 
 -702.10678m  699.9999m  574.6049n 
 -702.00678m  699.9999m  574.0825n 
 -701.90678m  699.9999m  573.5607n 
 -701.80678m  699.9999m  573.0393n 
 -701.70678m  699.9999m  572.5185n 
 -701.60678m  699.9999m  571.9982n 
 -701.50678m  699.9999m  571.4784n 
 -701.40678m  699.9999m  570.9592n 
 -701.30678m  699.9999m  570.4405n 
 -701.20678m  699.9999m  569.9223n 
 -701.10678m  699.9999m  569.4046n 
 -701.00678m  699.9999m  568.8874n 
 -700.90678m  699.9999m  568.3708n 
 -700.80678m  699.9999m  567.8546n 
 -700.70678m  699.9999m  567.3390n 
 -700.60678m  699.9999m  566.8239n 
 -700.50678m  699.9999m  566.3093n 
 -700.40678m  699.9999m  565.7953n 
 -700.30678m  699.9999m  565.2817n 
 -700.20678m  699.9999m  564.7687n 
 -700.10678m  699.9999m  564.2562n 
 -700.00678m  699.9999m  563.7442n 
 -699.90678m  699.9999m  563.2327n 
 -699.80678m  699.9999m  562.7217n 
 -699.70678m  699.9999m  562.2113n 
 -699.60678m  699.9999m  561.7013n 
 -699.50678m  699.9999m  561.1919n 
 -699.40678m  699.9999m  560.6830n 
 -699.30678m  699.9999m  560.1746n 
 -699.20678m  699.9999m  559.6667n 
 -699.10678m  699.9999m  559.1593n 
 -699.00678m  699.9999m  558.6524n 
 -698.90678m  699.9999m  558.1460n 
 -698.80678m  699.9999m  557.6401n 
 -698.70678m  699.9999m  557.1348n 
 -698.60678m  699.9999m  556.6299n 
 -698.50678m  699.9999m  556.1256n 
 -698.40678m  699.9999m  555.6217n 
 -698.30678m  699.9999m  555.1184n 
 -698.20678m  699.9999m  554.6156n 
 -698.10678m  699.9999m  554.1132n 
 -698.00678m  699.9999m  553.6114n 
 -697.90678m  699.9999m  553.1101n 
 -697.80678m  699.9999m  552.6093n 
 -697.70678m  699.9999m  552.1089n 
 -697.60678m  699.9999m  551.6091n 
 -697.50678m  699.9999m  551.1098n 
 -697.40678m  699.9999m  550.6110n 
 -697.30678m  699.9999m  550.1127n 
 -697.20678m  699.9999m  549.6149n 
 -697.10678m  699.9999m  549.1175n 
 -697.00678m  699.9999m  548.6207n 
 -696.90678m  699.9999m  548.1244n 
 -696.80678m  699.9999m  547.6286n 
 -696.70678m  699.9999m  547.1332n 
 -696.60678m  699.9999m  546.6384n 
 -696.50678m  699.9999m  546.1441n 
 -696.40678m  699.9999m  545.6502n 
 -696.30678m  699.9999m  545.1569n 
 -696.20678m  699.9999m  544.6640n 
 -696.10678m  699.9999m  544.1717n 
 -696.00678m  699.9999m  543.6798n 
 -695.90678m  699.9999m  543.1884n 
 -695.80678m  699.9999m  542.6975n 
 -695.70678m  699.9999m  542.2072n 
 -695.60678m  699.9999m  541.7173n 
 -695.50678m  699.9999m  541.2278n 
 -695.40678m  699.9999m  540.7389n 
 -695.30678m  699.9999m  540.2505n 
 -695.20678m  699.9999m  539.7626n 
 -695.10678m  699.9999m  539.2751n 
 -695.00678m  699.9999m  538.7881n 
 -694.90678m  699.9999m  538.3017n 
 -694.80678m  699.9999m  537.8157n 
 -694.70678m  699.9999m  537.3302n 
 -694.60678m  699.9999m  536.8451n 
 -694.50678m  699.9999m  536.3606n 
 -694.40678m  699.9999m  535.8766n 
 -694.30678m  699.9999m  535.3930n 
 -694.20678m  699.9999m  534.9099n 
 -694.10678m  699.9999m  534.4273n 
 -694.00678m  699.9999m  533.9452n 
 -693.90678m  699.9999m  533.4636n 
 -693.80678m  699.9999m  532.9824n 
 -693.70678m  699.9999m  532.5018n 
 -693.60678m  699.9999m  532.0216n 
 -693.50678m  699.9999m  531.5419n 
 -693.40678m  699.9999m  531.0626n 
 -693.30678m  699.9999m  530.5839n 
 -693.20678m  699.9999m  530.1056n 
 -693.10678m  699.9999m  529.6278n 
 -693.00678m  699.9999m  529.1505n 
 -692.90678m  699.9999m  528.6736n 
 -692.80678m  699.9999m  528.1973n 
 -692.70678m  699.9999m  527.7214n 
 -692.60678m  699.9999m  527.2460n 
 -692.50678m  699.9999m  526.7711n 
 -692.40678m  699.9999m  526.2966n 
 -692.30678m  699.9999m  525.8226n 
 -692.20678m  699.9999m  525.3491n 
 -692.10678m  699.9999m  524.8760n 
 -692.00678m  699.9999m  524.4035n 
 -691.90678m  699.9999m  523.9314n 
 -691.80678m  699.9999m  523.4598n 
 -691.70678m  699.9999m  522.9886n 
 -691.60678m  699.9999m  522.5179n 
 -691.50678m  699.9999m  522.0477n 
 -691.40678m  699.9999m  521.5780n 
 -691.30678m  699.9999m  521.1087n 
 -691.20678m  699.9999m  520.6399n 
 -691.10678m  699.9999m  520.1716n 
 -691.00678m  699.9999m  519.7037n 
 -690.90678m  699.9999m  519.2363n 
 -690.80678m  699.9999m  518.7693n 
 -690.70678m  699.9999m  518.3029n 
 -690.60678m  699.9999m  517.8369n 
 -690.50678m  699.9999m  517.3713n 
 -690.40678m  699.9999m  516.9063n 
 -690.30678m  699.9999m  516.4416n 
 -690.20678m  699.9999m  515.9775n 
 -690.10678m  699.9999m  515.5138n 
 -690.00678m  699.9999m  515.0506n 
 -689.90678m  699.9999m  514.5878n 
 -689.80678m  699.9999m  514.1255n 
 -689.70678m  699.9999m  513.6637n 
 -689.60678m  699.9999m  513.2023n 
 -689.50678m  699.9999m  512.7414n 
 -689.40678m  699.9999m  512.2810n 
 -689.30678m  699.9999m  511.8210n 
 -689.20678m  699.9999m  511.3614n 
 -689.10678m  699.9999m  510.9024n 
 -689.00678m  699.9999m  510.4437n 
 -688.90678m  699.9999m  509.9856n 
 -688.80678m  699.9999m  509.5279n 
 -688.70678m  699.9999m  509.0706n 
 -688.60678m  699.9999m  508.6138n 
 -688.50678m  699.9999m  508.1575n 
 -688.40678m  699.9999m  507.7016n 
 -688.30678m  699.9999m  507.2462n 
 -688.20678m  699.9999m  506.7912n 
 -688.10678m  699.9999m  506.3367n 
 -688.00678m  699.9999m  505.8826n 
 -687.90678m  699.9999m  505.4290n 
 -687.80678m  699.9999m  504.9758n 
 -687.70678m  699.9999m  504.5231n 
 -687.60678m  699.9999m  504.0709n 
 -687.50678m  699.9999m  503.6190n 
 -687.40678m  699.9999m  503.1677n 
 -687.30678m  699.9999m  502.7168n 
 -687.20678m  699.9999m  502.2663n 
 -687.10678m  699.9999m  501.8163n 
 -687.00678m  699.9999m  501.3667n 
 -686.90678m  699.9999m  500.9176n 
 -686.80678m  699.9999m  500.4690n 
 -686.70678m  699.9999m  500.0207n 
 -686.60678m  699.9999m  499.5730n 
 -686.50678m  699.9999m  499.1256n 
 -686.40678m  699.9999m  498.6787n 
 -686.30678m  699.9999m  498.2323n 
 -686.20678m  699.9999m  497.7863n 
 -686.10678m  699.9999m  497.3408n 
 -686.00678m  699.9999m  496.8957n 
 -685.90678m  699.9999m  496.4510n 
 -685.80678m  699.9999m  496.0068n 
 -685.70678m  699.9999m  495.5630n 
 -685.60678m  699.9999m  495.1197n 
 -685.50678m  699.9999m  494.6768n 
 -685.40678m  699.9999m  494.2343n 
 -685.30678m  699.9999m  493.7923n 
 -685.20678m  699.9999m  493.3507n 
 -685.10678m  699.9999m  492.9096n 
 -685.00678m  699.9999m  492.4689n 
 -684.90678m  699.9999m  492.0286n 
 -684.80678m  699.9999m  491.5888n 
 -684.70678m  699.9999m  491.1494n 
 -684.60678m  699.9999m  490.7105n 
 -684.50678m  699.9999m  490.2720n 
 -684.40678m  699.9999m  489.8339n 
 -684.30678m  699.9999m  489.3963n 
 -684.20678m  699.9999m  488.9591n 
 -684.10678m  699.9999m  488.5223n 
 -684.00678m  699.9999m  488.0860n 
 -683.90678m  699.9999m  487.6501n 
 -683.80678m  699.9999m  487.2146n 
 -683.70678m  699.9999m  486.7796n 
 -683.60678m  699.9999m  486.3450n 
 -683.50678m  699.9999m  485.9108n 
 -683.40678m  699.9999m  485.4771n 
 -683.30678m  699.9999m  485.0438n 
 -683.20678m  699.9999m  484.6109n 
 -683.10678m  699.9999m  484.1784n 
 -683.00678m  699.9999m  483.7464n 
 -682.90678m  699.9999m  483.3148n 
 -682.80678m  699.9999m  482.8837n 
 -682.70678m  699.9999m  482.4530n 
 -682.60678m  699.9999m  482.0227n 
 -682.50678m  699.9999m  481.5928n 
 -682.40678m  699.9999m  481.1633n 
 -682.30678m  699.9999m  480.7343n 
 -682.20678m  699.9999m  480.3057n 
 -682.10678m  699.9999m  479.8776n 
 -682.00678m  699.9999m  479.4498n 
 -681.90678m  699.9999m  479.0225n 
 -681.80678m  699.9999m  478.5956n 
 -681.70678m  699.9999m  478.1692n 
 -681.60678m  699.9999m  477.7431n 
 -681.50678m  699.9999m  477.3175n 
 -681.40678m  699.9999m  476.8923n 
 -681.30678m  699.9999m  476.4675n 
 -681.20678m  699.9999m  476.0432n 
 -681.10678m  699.9999m  475.6192n 
 -681.00678m  699.9999m  475.1957n 
 -680.90678m  699.9999m  474.7726n 
 -680.80678m  699.9999m  474.3500n 
 -680.70678m  699.9999m  473.9277n 
 -680.60678m  699.9999m  473.5059n 
 -680.50678m  699.9999m  473.0845n 
 -680.40678m  699.9999m  472.6635n 
 -680.30678m  699.9999m  472.2429n 
 -680.20678m  699.9999m  471.8227n 
 -680.10678m  699.9999m  471.4030n 
 -680.00678m  699.9999m  470.9837n 
 -679.90678m  699.9999m  470.5647n 
 -679.80678m  699.9999m  470.1462n 
 -679.70678m  699.9999m  469.7282n 
 -679.60678m  699.9999m  469.3105n 
 -679.50678m  699.9999m  468.8932n 
 -679.40678m  699.9999m  468.4764n 
 -679.30678m  699.9999m  468.0600n 
 -679.20678m  699.9999m  467.6440n 
 -679.10678m  699.9999m  467.2284n 
 -679.00678m  699.9999m  466.8132n 
 -678.90678m  699.9999m  466.3984n 
 -678.80678m  699.9999m  465.9840n 
 -678.70678m  699.9999m  465.5701n 
 -678.60678m  699.9999m  465.1566n 
 -678.50678m  699.9999m  464.7434n 
 -678.40678m  699.9999m  464.3307n 
 -678.30678m  699.9999m  463.9184n 
 -678.20678m  699.9999m  463.5065n 
 -678.10678m  699.9999m  463.0950n 
 -678.00678m  699.9999m  462.6839n 
 -677.90678m  699.9999m  462.2732n 
 -677.80678m  699.9999m  461.8629n 
 -677.70678m  699.9999m  461.4531n 
 -677.60678m  699.9999m  461.0436n 
 -677.50678m  699.9999m  460.6345n 
 -677.40678m  699.9999m  460.2259n 
 -677.30678m  699.9999m  459.8177n 
 -677.20678m  699.9999m  459.4098n 
 -677.10678m  699.9999m  459.0024n 
 -677.00678m  699.9999m  458.5953n 
 -676.90678m  699.9999m  458.1887n 
 -676.80678m  699.9999m  457.7825n 
 -676.70678m  699.9999m  457.3766n 
 -676.60678m  699.9999m  456.9712n 
 -676.50678m  699.9999m  456.5662n 
 -676.40678m  699.9999m  456.1616n 
 -676.30678m  699.9999m  455.7574n 
 -676.20678m  699.9999m  455.3535n 
 -676.10678m  699.9999m  454.9501n 
 -676.00678m  699.9999m  454.5471n 
 -675.90678m  699.9999m  454.1445n 
 -675.80678m  699.9999m  453.7422n 
 -675.70678m  699.9999m  453.3404n 
 -675.60678m  699.9999m  452.9390n 
 -675.50678m  699.9999m  452.5380n 
 -675.40678m  699.9999m  452.1373n 
 -675.30678m  699.9999m  451.7371n 
 -675.20678m  699.9999m  451.3372n 
 -675.10678m  699.9999m  450.9378n 
 -675.00678m  699.9999m  450.5387n 
 -674.90678m  699.9999m  450.1401n 
 -674.80678m  699.9999m  449.7418n 
 -674.70678m  699.9999m  449.3440n 
 -674.60678m  699.9999m  448.9465n 
 -674.50678m  699.9999m  448.5494n 
 -674.40678m  699.9999m  448.1527n 
 -674.30678m  699.9999m  447.7564n 
 -674.20678m  699.9999m  447.3605n 
 -674.10678m  699.9999m  446.9650n 
 -674.00678m  699.9999m  446.5699n 
 -673.90678m  699.9999m  446.1751n 
 -673.80678m  699.9999m  445.7808n 
 -673.70678m  699.9999m  445.3868n 
 -673.60678m  699.9999m  444.9933n 
 -673.50678m  699.9999m  444.6001n 
 -673.40678m  699.9999m  444.2073n 
 -673.30678m  699.9999m  443.8149n 
 -673.20678m  699.9999m  443.4229n 
 -673.10678m  699.9999m  443.0313n 
 -673.00678m  699.9999m  442.6401n 
 -672.90678m  699.9999m  442.2492n 
 -672.80678m  699.9999m  441.8588n 
 -672.70678m  699.9999m  441.4687n 
 -672.60678m  699.9999m  441.0790n 
 -672.50678m  699.9999m  440.6897n 
 -672.40678m  699.9999m  440.3008n 
 -672.30678m  699.9999m  439.9122n 
 -672.20678m  699.9999m  439.5241n 
 -672.10678m  699.9999m  439.1363n 
 -672.00678m  699.9999m  438.7489n 
 -671.90678m  699.9999m  438.3619n 
 -671.80678m  699.9999m  437.9753n 
 -671.70678m  699.9999m  437.5890n 
 -671.60678m  699.9999m  437.2032n 
 -671.50678m  699.9999m  436.8177n 
 -671.40678m  699.9999m  436.4326n 
 -671.30678m  699.9999m  436.0479n 
 -671.20678m  699.9999m  435.6636n 
 -671.10678m  699.9999m  435.2796n 
 -671.00678m  699.9999m  434.8960n 
 -670.90678m  699.9999m  434.5128n 
 -670.80678m  699.9999m  434.1300n 
 -670.70678m  699.9999m  433.7476n 
 -670.60678m  699.9999m  433.3655n 
 -670.50678m  699.9999m  432.9838n 
 -670.40678m  699.9999m  432.6025n 
 -670.30678m  699.9999m  432.2215n 
 -670.20678m  699.9999m  431.8410n 
 -670.10678m  699.9999m  431.4608n 
 -670.00678m  699.9999m  431.0810n 
 -669.90678m  699.9999m  430.7015n 
 -669.80678m  699.9999m  430.3225n 
 -669.70678m  699.9999m  429.9438n 
 -669.60678m  699.9999m  429.5655n 
 -669.50678m  699.9999m  429.1875n 
 -669.40678m  699.9999m  428.8100n 
 -669.30678m  699.9999m  428.4328n 
 -669.20678m  699.9999m  428.0559n 
 -669.10678m  699.9999m  427.6795n 
 -669.00678m  699.9999m  427.3034n 
 -668.90678m  699.9999m  426.9277n 
 -668.80678m  699.9999m  426.5524n 
 -668.70678m  699.9999m  426.1774n 
 -668.60678m  699.9999m  425.8028n 
 -668.50678m  699.9999m  425.4286n 
 -668.40678m  699.9999m  425.0547n 
 -668.30678m  699.9999m  424.6812n 
 -668.20678m  699.9999m  424.3081n 
 -668.10678m  699.9999m  423.9353n 
 -668.00678m  699.9999m  423.5629n 
 -667.90678m  699.9999m  423.1909n 
 -667.80678m  699.9999m  422.8192n 
 -667.70678m  699.9999m  422.4479n 
 -667.60678m  699.9999m  422.0770n 
 -667.50678m  699.9999m  421.7064n 
 -667.40678m  699.9999m  421.3363n 
 -667.30678m  699.9999m  420.9664n 
 -667.20678m  699.9999m  420.5970n 
 -667.10678m  699.9999m  420.2278n 
 -667.00678m  699.9999m  419.8591n 
 -666.90678m  699.9999m  419.4907n 
 -666.80678m  699.9999m  419.1227n 
 -666.70678m  699.9999m  418.7551n 
 -666.60678m  699.9999m  418.3878n 
 -666.50678m  699.9999m  418.0208n 
 -666.40678m  699.9999m  417.6543n 
 -666.30678m  699.9999m  417.2881n 
 -666.20678m  699.9999m  416.9222n 
 -666.10678m  699.9999m  416.5567n 
 -666.00678m  699.9999m  416.1916n 
 -665.90678m  699.9999m  415.8268n 
 -665.80678m  699.9999m  415.4624n 
 -665.70678m  699.9999m  415.0984n 
 -665.60678m  699.9999m  414.7347n 
 -665.50678m  699.9999m  414.3714n 
 -665.40678m  699.9999m  414.0084n 
 -665.30678m  699.9999m  413.6458n 
 -665.20678m  699.9999m  413.2835n 
 -665.10678m  699.9999m  412.9216n 
 -665.00678m  699.9999m  412.5600n 
 -664.90678m  699.9999m  412.1988n 
 -664.80678m  699.9999m  411.8380n 
 -664.70678m  699.9999m  411.4775n 
 -664.60678m  699.9999m  411.1174n 
 -664.50678m  699.9999m  410.7576n 
 -664.40678m  699.9999m  410.3982n 
 -664.30678m  699.9999m  410.0391n 
 -664.20678m  699.9999m  409.6804n 
 -664.10678m  699.9999m  409.3220n 
 -664.00678m  699.9999m  408.9640n 
 -663.90678m  699.9999m  408.6064n 
 -663.80678m  699.9999m  408.2491n 
 -663.70678m  699.9999m  407.8921n 
 -663.60678m  699.9999m  407.5355n 
 -663.50678m  699.9999m  407.1792n 
 -663.40678m  699.9999m  406.8233n 
 -663.30678m  699.9999m  406.4678n 
 -663.20678m  699.9999m  406.1126n 
 -663.10678m  699.9999m  405.7577n 
 -663.00678m  699.9999m  405.4032n 
 -662.90678m  699.9999m  405.0490n 
 -662.80678m  699.9999m  404.6952n 
 -662.70678m  699.9999m  404.3418n 
 -662.60678m  699.9999m  403.9887n 
 -662.50678m  699.9999m  403.6359n 
 -662.40678m  699.9999m  403.2835n 
 -662.30678m  699.9999m  402.9314n 
 -662.20678m  699.9999m  402.5796n 
 -662.10678m  699.9999m  402.2283n 
 -662.00678m  699.9999m  401.8772n 
 -661.90678m  699.9999m  401.5265n 
 -661.80678m  699.9999m  401.1762n 
 -661.70678m  699.9999m  400.8261n 
 -661.60678m  699.9999m  400.4765n 
 -661.50678m  699.9999m  400.1272n 
 -661.40678m  699.9999m  399.7782n 
 -661.30678m  699.9999m  399.4295n 
 -661.20678m  699.9999m  399.0812n 
 -661.10678m  699.9999m  398.7333n 
 -661.00678m  699.9999m  398.3857n 
 -660.90678m  699.9999m  398.0384n 
 -660.80678m  699.9999m  397.6915n 
 -660.70678m  699.9999m  397.3449n 
 -660.60678m  699.9999m  396.9986n 
 -660.50678m  699.9999m  396.6527n 
 -660.40678m  699.9999m  396.3072n 
 -660.30678m  699.9999m  395.9619n 
 -660.20678m  699.9999m  395.6170n 
 -660.10678m  699.9999m  395.2725n 
 -660.00678m  699.9999m  394.9283n 
 -659.90678m  699.9999m  394.5844n 
 -659.80678m  699.9999m  394.2408n 
 -659.70678m  699.9999m  393.8976n 
 -659.60678m  699.9999m  393.5547n 
 -659.50678m  699.9999m  393.2122n 
 -659.40678m  699.9999m  392.8700n 
 -659.30678m  699.9999m  392.5282n 
 -659.20678m  699.9999m  392.1866n 
 -659.10678m  699.9999m  391.8454n 
 -659.00678m  699.9999m  391.5046n 
 -658.90678m  699.9999m  391.1641n 
 -658.80678m  699.9999m  390.8239n 
 -658.70678m  699.9999m  390.4840n 
 -658.60678m  699.9999m  390.1445n 
 -658.50678m  699.9999m  389.8053n 
 -658.40678m  699.9999m  389.4664n 
 -658.30678m  699.9999m  389.1279n 
 -658.20678m  699.9999m  388.7897n 
 -658.10678m  699.9999m  388.4518n 
 -658.00678m  699.9999m  388.1143n 
 -657.90678m  699.9999m  387.7771n 
 -657.80678m  699.9999m  387.4402n 
 -657.70678m  699.9999m  387.1037n 
 -657.60678m  699.9999m  386.7675n 
 -657.50678m  699.9999m  386.4316n 
 -657.40678m  699.9999m  386.0960n 
 -657.30678m  699.9999m  385.7608n 
 -657.20678m  699.9999m  385.4259n 
 -657.10678m  699.9999m  385.0913n 
 -657.00678m  699.9999m  384.7571n 
 -656.90678m  699.9999m  384.4232n 
 -656.80678m  699.9999m  384.0896n 
 -656.70678m  699.9999m  383.7563n 
 -656.60678m  699.9999m  383.4234n 
 -656.50678m  699.9999m  383.0908n 
 -656.40678m  699.9999m  382.7585n 
 -656.30678m  699.9999m  382.4265n 
 -656.20678m  699.9999m  382.0949n 
 -656.10678m  699.9999m  381.7636n 
 -656.00678m  699.9999m  381.4326n 
 -655.90678m  699.9999m  381.1019n 
 -655.80678m  699.9999m  380.7716n 
 -655.70678m  699.9999m  380.4416n 
 -655.60678m  699.9999m  380.1119n 
 -655.50678m  699.9999m  379.7825n 
 -655.40678m  699.9999m  379.4535n 
 -655.30678m  699.9999m  379.1247n 
 -655.20678m  699.9999m  378.7963n 
 -655.10678m  699.9999m  378.4682n 
 -655.00678m  699.9999m  378.1405n 
 -654.90678m  699.9999m  377.8130n 
 -654.80678m  699.9999m  377.4859n 
 -654.70678m  699.9999m  377.1591n 
 -654.60678m  699.9999m  376.8326n 
 -654.50678m  699.9999m  376.5065n 
 -654.40678m  699.9999m  376.1806n 
 -654.30678m  699.9999m  375.8551n 
 -654.20678m  699.9999m  375.5299n 
 -654.10678m  699.9999m  375.2050n 
 -654.00678m  699.9999m  374.8804n 
 -653.90678m  699.9999m  374.5561n 
 -653.80678m  699.9999m  374.2322n 
 -653.70678m  699.9999m  373.9086n 
 -653.60678m  699.9999m  373.5853n 
 -653.50678m  699.9999m  373.2623n 
 -653.40678m  699.9999m  372.9396n 
 -653.30678m  699.9999m  372.6172n 
 -653.20678m  699.9999m  372.2952n 
 -653.10678m  699.9999m  371.9735n 
 -653.00678m  699.9999m  371.6520n 
 -652.90678m  699.9999m  371.3309n 
 -652.80678m  699.9999m  371.0102n 
 -652.70678m  699.9999m  370.6897n 
 -652.60678m  699.9999m  370.3695n 
 -652.50678m  699.9999m  370.0497n 
 -652.40678m  699.9999m  369.7301n 
 -652.30678m  699.9999m  369.4109n 
 -652.20678m  699.9999m  369.0920n 
 -652.10678m  699.9999m  368.7734n 
 -652.00678m  699.9999m  368.4551n 
 -651.90678m  699.9999m  368.1371n 
 -651.80678m  699.9999m  367.8194n 
 -651.70678m  699.9999m  367.5020n 
 -651.60678m  699.9999m  367.1850n 
 -651.50678m  699.9999m  366.8683n 
 -651.40678m  699.9999m  366.5518n 
 -651.30678m  699.9999m  366.2357n 
 -651.20678m  699.9999m  365.9199n 
 -651.10678m  699.9999m  365.6044n 
 -651.00678m  699.9999m  365.2892n 
 -650.90678m  699.9999m  364.9743n 
 -650.80678m  699.9999m  364.6597n 
 -650.70678m  699.9999m  364.3454n 
 -650.60678m  699.9999m  364.0314n 
 -650.50678m  699.9999m  363.7177n 
 -650.40678m  699.9999m  363.4044n 
 -650.30678m  699.9999m  363.0913n 
 -650.20678m  699.9999m  362.7786n 
 -650.10678m  699.9999m  362.4661n 
 -650.00678m  699.9999m  362.1540n 
 -649.90678m  699.9999m  361.8421n 
 -649.80678m  699.9999m  361.5306n 
 -649.70678m  699.9999m  361.2194n 
 -649.60678m  699.9999m  360.9085n 
 -649.50678m  699.9999m  360.5978n 
 -649.40678m  699.9999m  360.2875n 
 -649.30678m  699.9999m  359.9775n 
 -649.20678m  699.9999m  359.6678n 
 -649.10678m  699.9999m  359.3584n 
 -649.00678m  699.9999m  359.0492n 
 -648.90678m  699.9999m  358.7404n 
 -648.80678m  699.9999m  358.4319n 
 -648.70678m  699.9999m  358.1237n 
 -648.60678m  699.9999m  357.8158n 
 -648.50678m  699.9999m  357.5082n 
 -648.40678m  699.9999m  357.2009n 
 -648.30678m  699.9999m  356.8938n 
 -648.20678m  699.9999m  356.5871n 
 -648.10678m  699.9999m  356.2807n 
 -648.00678m  699.9999m  355.9746n 
 -647.90678m  699.9999m  355.6688n 
 -647.80678m  699.9999m  355.3633n 
 -647.70678m  699.9999m  355.0580n 
 -647.60678m  699.9999m  354.7531n 
 -647.50678m  699.9999m  354.4485n 
 -647.40678m  699.9999m  354.1441n 
 -647.30678m  699.9999m  353.8401n 
 -647.20678m  699.9999m  353.5364n 
 -647.10678m  699.9999m  353.2329n 
 -647.00678m  699.9999m  352.9298n 
 -646.90678m  699.9999m  352.6269n 
 -646.80678m  699.9999m  352.3243n 
 -646.70678m  699.9999m  352.0221n 
 -646.60678m  699.9999m  351.7201n 
 -646.50678m  699.9999m  351.4184n 
 -646.40678m  699.9999m  351.1170n 
 -646.30678m  699.9999m  350.8159n 
 -646.20678m  699.9999m  350.5151n 
 -646.10678m  699.9999m  350.2146n 
 -646.00678m  699.9999m  349.9144n 
 -645.90678m  699.9999m  349.6145n 
 -645.80678m  699.9999m  349.3149n 
 -645.70678m  699.9999m  349.0155n 
 -645.60678m  699.9999m  348.7165n 
 -645.50678m  699.9999m  348.4177n 
 -645.40678m  699.9999m  348.1192n 
 -645.30678m  699.9999m  347.8211n 
 -645.20678m  699.9999m  347.5232n 
 -645.10678m  699.9999m  347.2256n 
 -645.00678m  699.9999m  346.9283n 
 -644.90678m  699.9999m  346.6313n 
 -644.80678m  699.9999m  346.3345n 
 -644.70678m  699.9999m  346.0381n 
 -644.60678m  699.9999m  345.7419n 
 -644.50678m  699.9999m  345.4460n 
 -644.40678m  699.9999m  345.1505n 
 -644.30678m  699.9999m  344.8552n 
 -644.20678m  699.9999m  344.5602n 
 -644.10678m  699.9999m  344.2654n 
 -644.00678m  699.9999m  343.9710n 
 -643.90678m  699.9999m  343.6769n 
 -643.80678m  699.9999m  343.3830n 
 -643.70678m  699.9999m  343.0894n 
 -643.60678m  699.9999m  342.7961n 
 -643.50678m  699.9999m  342.5031n 
 -643.40678m  699.9999m  342.2104n 
 -643.30678m  699.9999m  341.9180n 
 -643.20678m  699.9999m  341.6258n 
 -643.10678m  699.9999m  341.3339n 
 -643.00678m  699.9999m  341.0423n 
 -642.90678m  699.9999m  340.7510n 
 -642.80678m  699.9999m  340.4600n 
 -642.70678m  699.9999m  340.1693n 
 -642.60678m  699.9999m  339.8788n 
 -642.50678m  699.9999m  339.5886n 
 -642.40678m  699.9999m  339.2987n 
 -642.30678m  699.9999m  339.0091n 
 -642.20678m  699.9999m  338.7198n 
 -642.10678m  699.9999m  338.4307n 
 -642.00678m  699.9999m  338.1420n 
 -641.90678m  699.9999m  337.8535n 
 -641.80678m  699.9999m  337.5653n 
 -641.70678m  699.9999m  337.2773n 
 -641.60678m  699.9999m  336.9897n 
 -641.50678m  699.9999m  336.7023n 
 -641.40678m  699.9999m  336.4152n 
 -641.30678m  699.9999m  336.1284n 
 -641.20678m  699.9999m  335.8419n 
 -641.10678m  699.9999m  335.5556n 
 -641.00678m  699.9999m  335.2696n 
 -640.90678m  699.9999m  334.9839n 
 -640.80678m  699.9999m  334.6985n 
 -640.70678m  699.9999m  334.4133n 
 -640.60678m  699.9999m  334.1285n 
 -640.50678m  699.9999m  333.8439n 
 -640.40678m  699.9999m  333.5595n 
 -640.30678m  699.9999m  333.2755n 
 -640.20678m  699.9999m  332.9917n 
 -640.10678m  699.9999m  332.7082n 
 -640.00678m  699.9999m  332.4250n 
 -639.90678m  699.9999m  332.1420n 
 -639.80678m  699.9999m  331.8594n 
 -639.70678m  699.9999m  331.5770n 
 -639.60678m  699.9999m  331.2948n 
 -639.50678m  699.9999m  331.0130n 
 -639.40678m  699.9999m  330.7314n 
 -639.30678m  699.9999m  330.4501n 
 -639.20678m  699.9999m  330.1690n 
 -639.10678m  699.9999m  329.8883n 
 -639.00678m  699.9999m  329.6078n 
 -638.90678m  699.9999m  329.3276n 
 -638.80678m  699.9999m  329.0476n 
 -638.70678m  699.9999m  328.7679n 
 -638.60678m  699.9999m  328.4885n 
 -638.50678m  699.9999m  328.2094n 
 -638.40678m  699.9999m  327.9305n 
 -638.30678m  699.9999m  327.6519n 
 -638.20678m  699.9999m  327.3736n 
 -638.10678m  699.9999m  327.0955n 
 -638.00678m  699.9999m  326.8177n 
 -637.90678m  699.9999m  326.5402n 
 -637.80678m  699.9999m  326.2630n 
 -637.70678m  699.9999m  325.9860n 
 -637.60678m  699.9999m  325.7093n 
 -637.50678m  699.9999m  325.4328n 
 -637.40678m  699.9999m  325.1566n 
 -637.30678m  699.9999m  324.8807n 
 -637.20678m  699.9999m  324.6051n 
 -637.10678m  699.9999m  324.3297n 
 -637.00678m  699.9999m  324.0546n 
 -636.90678m  699.9999m  323.7797n 
 -636.80678m  699.9999m  323.5051n 
 -636.70678m  699.9999m  323.2308n 
 -636.60678m  699.9999m  322.9568n 
 -636.50678m  699.9999m  322.6830n 
 -636.40678m  699.9999m  322.4095n 
 -636.30678m  699.9999m  322.1362n 
 -636.20678m  699.9999m  321.8632n 
 -636.10678m  699.9999m  321.5905n 
 -636.00678m  699.9999m  321.3180n 
 -635.90678m  699.9999m  321.0458n 
 -635.80678m  699.9999m  320.7739n 
 -635.70678m  699.9999m  320.5022n 
 -635.60678m  699.9999m  320.2308n 
 -635.50678m  699.9999m  319.9596n 
 -635.40678m  699.9999m  319.6887n 
 -635.30678m  699.9999m  319.4181n 
 -635.20678m  699.9999m  319.1477n 
 -635.10678m  699.9999m  318.8776n 
 -635.00678m  699.9999m  318.6078n 
 -634.90678m  699.9999m  318.3382n 
 -634.80678m  699.9999m  318.0689n 
 -634.70678m  699.9999m  317.7998n 
 -634.60678m  699.9999m  317.5310n 
 -634.50678m  699.9999m  317.2625n 
 -634.40678m  699.9999m  316.9942n 
 -634.30678m  699.9999m  316.7261n 
 -634.20678m  699.9999m  316.4584n 
 -634.10678m  699.9999m  316.1909n 
 -634.00678m  699.9999m  315.9236n 
 -633.90678m  699.9999m  315.6566n 
 -633.80678m  699.9999m  315.3899n 
 -633.70678m  699.9999m  315.1234n 
 -633.60678m  699.9999m  314.8572n 
 -633.50678m  699.9999m  314.5912n 
 -633.40678m  699.9999m  314.3255n 
 -633.30678m  699.9999m  314.0600n 
 -633.20678m  699.9999m  313.7949n 
 -633.10678m  699.9999m  313.5299n 
 -633.00678m  699.9999m  313.2652n 
 -632.90678m  699.9999m  313.0008n 
 -632.80678m  699.9999m  312.7366n 
 -632.70678m  699.9999m  312.4727n 
 -632.60678m  699.9999m  312.2090n 
 -632.50678m  699.9999m  311.9456n 
 -632.40678m  699.9999m  311.6825n 
 -632.30678m  699.9999m  311.4196n 
 -632.20678m  699.9999m  311.1569n 
 -632.10678m  699.9999m  310.8945n 
 -632.00678m  699.9999m  310.6324n 
 -631.90678m  699.9999m  310.3705n 
 -631.80678m  699.9999m  310.1088n 
 -631.70678m  699.9999m  309.8475n 
 -631.60678m  699.9999m  309.5863n 
 -631.50678m  699.9999m  309.3254n 
 -631.40678m  699.9999m  309.0648n 
 -631.30678m  699.9999m  308.8044n 
 -631.20678m  699.9999m  308.5443n 
 -631.10678m  699.9999m  308.2844n 
 -631.00678m  699.9999m  308.0248n 
 -630.90678m  699.9999m  307.7654n 
 -630.80678m  699.9999m  307.5063n 
 -630.70678m  699.9999m  307.2474n 
 -630.60678m  699.9999m  306.9888n 
 -630.50678m  699.9999m  306.7304n 
 -630.40678m  699.9999m  306.4723n 
 -630.30678m  699.9999m  306.2144n 
 -630.20678m  699.9999m  305.9567n 
 -630.10678m  699.9999m  305.6994n 
 -630.00678m  699.9999m  305.4422n 
 -629.90678m  699.9999m  305.1853n 
 -629.80678m  699.9999m  304.9287n 
 -629.70678m  699.9999m  304.6723n 
 -629.60678m  699.9999m  304.4161n 
 -629.50678m  699.9999m  304.1602n 
 -629.40678m  699.9999m  303.9046n 
 -629.30678m  699.9999m  303.6492n 
 -629.20678m  699.9999m  303.3940n 
 -629.10678m  699.9999m  303.1391n 
 -629.00678m  699.9999m  302.8844n 
 -628.90678m  699.9999m  302.6300n 
 -628.80678m  699.9999m  302.3758n 
 -628.70678m  699.9999m  302.1219n 
 -628.60678m  699.9999m  301.8682n 
 -628.50678m  699.9999m  301.6147n 
 -628.40678m  699.9999m  301.3615n 
 -628.30678m  699.9999m  301.1085n 
 -628.20678m  699.9999m  300.8558n 
 -628.10678m  699.9999m  300.6033n 
 -628.00678m  699.9999m  300.3511n 
 -627.90678m  699.9999m  300.0991n 
 -627.80678m  699.9999m  299.8474n 
 -627.70678m  699.9999m  299.5958n 
 -627.60678m  699.9999m  299.3446n 
 -627.50678m  699.9999m  299.0935n 
 -627.40678m  699.9999m  298.8428n 
 -627.30678m  699.9999m  298.5922n 
 -627.20678m  699.9999m  298.3419n 
 -627.10678m  699.9999m  298.0919n 
 -627.00678m  699.9999m  297.8420n 
 -626.90678m  699.9999m  297.5925n 
 -626.80678m  699.9999m  297.3431n 
 -626.70678m  699.9999m  297.0940n 
 -626.60678m  699.9999m  296.8451n 
 -626.50678m  699.9999m  296.5965n 
 -626.40678m  699.9999m  296.3481n 
 -626.30678m  699.9999m  296.1000n 
 -626.20678m  699.9999m  295.8521n 
 -626.10678m  699.9999m  295.6044n 
 -626.00678m  699.9999m  295.3570n 
 -625.90678m  699.9999m  295.1098n 
 -625.80678m  699.9999m  294.8628n 
 -625.70678m  699.9999m  294.6161n 
 -625.60678m  699.9999m  294.3696n 
 -625.50678m  699.9999m  294.1234n 
 -625.40678m  699.9999m  293.8774n 
 -625.30678m  699.9999m  293.6316n 
 -625.20678m  699.9999m  293.3861n 
 -625.10678m  699.9999m  293.1407n 
 -625.00678m  699.9999m  292.8957n 
 -624.90678m  699.9999m  292.6508n 
 -624.80678m  699.9999m  292.4063n 
 -624.70678m  699.9999m  292.1619n 
 -624.60678m  699.9999m  291.9178n 
 -624.50678m  699.9999m  291.6739n 
 -624.40678m  699.9999m  291.4302n 
 -624.30678m  699.9999m  291.1868n 
 -624.20678m  699.9999m  290.9436n 
 -624.10678m  699.9999m  290.7006n 
 -624.00678m  699.9999m  290.4579n 
 -623.90678m  699.9999m  290.2154n 
 -623.80678m  699.9999m  289.9731n 
 -623.70678m  699.9999m  289.7311n 
 -623.60678m  699.9999m  289.4893n 
 -623.50678m  699.9999m  289.2478n 
 -623.40678m  699.9999m  289.0064n 
 -623.30678m  699.9999m  288.7653n 
 -623.20678m  699.9999m  288.5245n 
 -623.10678m  699.9999m  288.2838n 
 -623.00678m  699.9999m  288.0434n 
 -622.90678m  699.9999m  287.8032n 
 -622.80678m  699.9999m  287.5633n 
 -622.70678m  699.9999m  287.3236n 
 -622.60678m  699.9999m  287.0841n 
 -622.50678m  699.9999m  286.8448n 
 -622.40678m  699.9999m  286.6058n 
 -622.30678m  699.9999m  286.3670n 
 -622.20678m  699.9999m  286.1284n 
 -622.10678m  699.9999m  285.8901n 
 -622.00678m  699.9999m  285.6519n 
 -621.90678m  699.9999m  285.4141n 
 -621.80678m  699.9999m  285.1764n 
 -621.70678m  699.9999m  284.9390n 
 -621.60678m  699.9999m  284.7018n 
 -621.50678m  699.9999m  284.4648n 
 -621.40678m  699.9999m  284.2280n 
 -621.30678m  699.9999m  283.9915n 
 -621.20678m  699.9999m  283.7552n 
 -621.10678m  699.9999m  283.5191n 
 -621.00678m  699.9999m  283.2833n 
 -620.90678m  699.9999m  283.0477n 
 -620.80678m  699.9999m  282.8123n 
 -620.70678m  699.9999m  282.5771n 
 -620.60678m  699.9999m  282.3422n 
 -620.50678m  699.9999m  282.1074n 
 -620.40678m  699.9999m  281.8730n 
 -620.30678m  699.9999m  281.6387n 
 -620.20678m  699.9999m  281.4046n 
 -620.10678m  699.9999m  281.1708n 
 -620.00678m  699.9999m  280.9372n 
 -619.90678m  699.9999m  280.7038n 
 -619.80678m  699.9999m  280.4707n 
 -619.70678m  699.9999m  280.2378n 
 -619.60678m  699.9999m  280.0051n 
 -619.50678m  699.9999m  279.7726n 
 -619.40678m  699.9999m  279.5403n 
 -619.30678m  699.9999m  279.3083n 
 -619.20678m  699.9999m  279.0765n 
 -619.10678m  699.9999m  278.8449n 
 -619.00678m  699.9999m  278.6135n 
 -618.90678m  699.9999m  278.3823n 
 -618.80678m  699.9999m  278.1514n 
 -618.70678m  699.9999m  277.9207n 
 -618.60678m  699.9999m  277.6902n 
 -618.50678m  699.9999m  277.4599n 
 -618.40678m  699.9999m  277.2299n 
 -618.30678m  699.9999m  277.0001n 
 -618.20678m  699.9999m  276.7704n 
 -618.10678m  699.9999m  276.5410n 
 -618.00678m  699.9999m  276.3119n 
 -617.90678m  699.9999m  276.0829n 
 -617.80678m  699.9999m  275.8542n 
 -617.70678m  699.9999m  275.6257n 
 -617.60678m  699.9999m  275.3974n 
 -617.50678m  699.9999m  275.1693n 
 -617.40678m  699.9999m  274.9414n 
 -617.30678m  699.9999m  274.7138n 
 -617.20678m  699.9999m  274.4864n 
 -617.10678m  699.9999m  274.2592n 
 -617.00678m  699.9999m  274.0322n 
 -616.90678m  699.9999m  273.8054n 
 -616.80678m  699.9999m  273.5788n 
 -616.70678m  699.9999m  273.3525n 
 -616.60678m  699.9999m  273.1264n 
 -616.50678m  699.9999m  272.9004n 
 -616.40678m  699.9999m  272.6747n 
 -616.30678m  699.9999m  272.4493n 
 -616.20678m  699.9999m  272.2240n 
 -616.10678m  699.9999m  271.9989n 
 -616.00678m  699.9999m  271.7741n 
 -615.90678m  699.9999m  271.5495n 
 -615.80678m  699.9999m  271.3251n 
 -615.70678m  699.9999m  271.1009n 
 -615.60678m  699.9999m  270.8769n 
 -615.50678m  699.9999m  270.6531n 
 -615.40678m  699.9999m  270.4296n 
 -615.30678m  699.9999m  270.2063n 
 -615.20678m  699.9999m  269.9831n 
 -615.10678m  699.9999m  269.7602n 
 -615.00678m  699.9999m  269.5375n 
 -614.90678m  699.9999m  269.3150n 
 -614.80678m  699.9999m  269.0928n 
 -614.70678m  699.9999m  268.8707n 
 -614.60678m  699.9999m  268.6488n 
 -614.50678m  699.9999m  268.4272n 
 -614.40678m  699.9999m  268.2058n 
 -614.30678m  699.9999m  267.9845n 
 -614.20678m  699.9999m  267.7635n 
 -614.10678m  699.9999m  267.5427n 
 -614.00678m  699.9999m  267.3222n 
 -613.90678m  699.9999m  267.1018n 
 -613.80678m  699.9999m  266.8816n 
 -613.70678m  699.9999m  266.6617n 
 -613.60678m  699.9999m  266.4419n 
 -613.50678m  699.9999m  266.2224n 
 -613.40678m  699.9999m  266.0030n 
 -613.30678m  699.9999m  265.7839n 
 -613.20678m  699.9999m  265.5650n 
 -613.10678m  699.9999m  265.3463n 
 -613.00678m  699.9999m  265.1278n 
 -612.90678m  699.9999m  264.9095n 
 -612.80678m  699.9999m  264.6915n 
 -612.70678m  699.9999m  264.4736n 
 -612.60678m  699.9999m  264.2559n 
 -612.50678m  699.9999m  264.0385n 
 -612.40678m  699.9999m  263.8212n 
 -612.30678m  699.9999m  263.6042n 
 -612.20678m  699.9999m  263.3873n 
 -612.10678m  699.9999m  263.1707n 
 -612.00678m  699.9999m  262.9543n 
 -611.90678m  699.9999m  262.7381n 
 -611.80678m  699.9999m  262.5220n 
 -611.70678m  699.9999m  262.3062n 
 -611.60678m  699.9999m  262.0906n 
 -611.50678m  699.9999m  261.8752n 
 -611.40678m  699.9999m  261.6601n 
 -611.30678m  699.9999m  261.4451n 
 -611.20678m  699.9999m  261.2303n 
 -611.10678m  699.9999m  261.0157n 
 -611.00678m  699.9999m  260.8013n 
 -610.90678m  699.9999m  260.5872n 
 -610.80678m  699.9999m  260.3732n 
 -610.70678m  699.9999m  260.1594n 
 -610.60678m  699.9999m  259.9459n 
 -610.50678m  699.9999m  259.7325n 
 -610.40678m  699.9999m  259.5194n 
 -610.30678m  699.9999m  259.3064n 
 -610.20678m  699.9999m  259.0937n 
 -610.10678m  699.9999m  258.8811n 
 -610.00678m  699.9999m  258.6688n 
 -609.90678m  699.9999m  258.4566n 
 -609.80678m  699.9999m  258.2447n 
 -609.70678m  699.9999m  258.0330n 
 -609.60678m  699.9999m  257.8214n 
 -609.50678m  699.9999m  257.6101n 
 -609.40678m  699.9999m  257.3989n 
 -609.30678m  699.9999m  257.1880n 
 -609.20678m  699.9999m  256.9773n 
 -609.10678m  699.9999m  256.7667n 
 -609.00678m  699.9999m  256.5564n 
 -608.90678m  699.9999m  256.3463n 
 -608.80678m  699.9999m  256.1363n 
 -608.70678m  699.9999m  255.9266n 
 -608.60678m  699.9999m  255.7171n 
 -608.50678m  699.9999m  255.5077n 
 -608.40678m  699.9999m  255.2986n 
 -608.30678m  699.9999m  255.0896n 
 -608.20678m  699.9999m  254.8809n 
 -608.10678m  699.9999m  254.6724n 
 -608.00678m  699.9999m  254.4640n 
 -607.90678m  699.9999m  254.2559n 
 -607.80678m  699.9999m  254.0479n 
 -607.70678m  699.9999m  253.8402n 
 -607.60678m  699.9999m  253.6326n 
 -607.50678m  699.9999m  253.4252n 
 -607.40678m  699.9999m  253.2181n 
 -607.30678m  699.9999m  253.0111n 
 -607.20678m  699.9999m  252.8043n 
 -607.10678m  699.9999m  252.5978n 
 -607.00678m  699.9999m  252.3914n 
 -606.90678m  699.9999m  252.1852n 
 -606.80678m  699.9999m  251.9792n 
 -606.70678m  699.9999m  251.7734n 
 -606.60678m  699.9999m  251.5678n 
 -606.50678m  699.9999m  251.3624n 
 -606.40678m  699.9999m  251.1572n 
 -606.30678m  699.9999m  250.9522n 
 -606.20678m  699.9999m  250.7474n 
 -606.10678m  699.9999m  250.5428n 
 -606.00678m  699.9999m  250.3383n 
 -605.90678m  699.9999m  250.1341n 
 -605.80678m  699.9999m  249.9301n 
 -605.70678m  699.9999m  249.7262n 
 -605.60678m  699.9999m  249.5225n 
 -605.50678m  699.9999m  249.3191n 
 -605.40678m  699.9999m  249.1158n 
 -605.30678m  699.9999m  248.9127n 
 -605.20678m  699.9999m  248.7099n 
 -605.10678m  699.9999m  248.5072n 
 -605.00678m  699.9999m  248.3047n 
 -604.90678m  699.9999m  248.1023n 
 -604.80678m  699.9999m  247.9002n 
 -604.70678m  699.9999m  247.6983n 
 -604.60678m  699.9999m  247.4966n 
 -604.50678m  699.9999m  247.2950n 
 -604.40678m  699.9999m  247.0937n 
 -604.30678m  699.9999m  246.8925n 
 -604.20678m  699.9999m  246.6915n 
 -604.10678m  699.9999m  246.4908n 
 -604.00678m  699.9999m  246.2902n 
 -603.90678m  699.9999m  246.0898n 
 -603.80678m  699.9999m  245.8895n 
 -603.70678m  699.9999m  245.6895n 
 -603.60678m  699.9999m  245.4897n 
 -603.50678m  699.9999m  245.2900n 
 -603.40678m  699.9999m  245.0906n 
 -603.30678m  699.9999m  244.8913n 
 -603.20678m  699.9999m  244.6922n 
 -603.10678m  699.9999m  244.4934n 
 -603.00678m  699.9999m  244.2947n 
 -602.90678m  699.9999m  244.0961n 
 -602.80678m  699.9999m  243.8978n 
 -602.70678m  699.9999m  243.6997n 
 -602.60678m  699.9999m  243.5017n 
 -602.50678m  699.9999m  243.3040n 
 -602.40678m  699.9999m  243.1064n 
 -602.30678m  699.9999m  242.9090n 
 -602.20678m  699.9999m  242.7118n 
 -602.10678m  699.9999m  242.5148n 
 -602.00678m  699.9999m  242.3179n 
 -601.90678m  699.9999m  242.1213n 
 -601.80678m  699.9999m  241.9248n 
 -601.70678m  699.9999m  241.7286n 
 -601.60678m  699.9999m  241.5325n 
 -601.50678m  699.9999m  241.3366n 
 -601.40678m  699.9999m  241.1409n 
 -601.30678m  699.9999m  240.9453n 
 -601.20678m  699.9999m  240.7500n 
 -601.10678m  699.9999m  240.5548n 
 -601.00678m  699.9999m  240.3598n 
 -600.90678m  699.9999m  240.1650n 
 -600.80678m  699.9999m  239.9704n 
 -600.70678m  699.9999m  239.7760n 
 -600.60678m  699.9999m  239.5818n 
 -600.50678m  699.9999m  239.3877n 
 -600.40678m  699.9999m  239.1938n 
 -600.30678m  699.9999m  239.0001n 
 -600.20678m  699.9999m  238.8066n 
 -600.10678m  699.9999m  238.6133n 
 -600.00678m  699.9999m  238.4201n 
 -599.90678m  699.9999m  238.2272n 
 -599.80678m  699.9999m  238.0344n 
 -599.70678m  699.9999m  237.8418n 
 -599.60678m  699.9999m  237.6494n 
 -599.50678m  699.9999m  237.4572n 
 -599.40678m  699.9999m  237.2651n 
 -599.30678m  699.9999m  237.0732n 
 -599.20678m  699.9999m  236.8815n 
 -599.10678m  699.9999m  236.6900n 
 -599.00678m  699.9999m  236.4987n 
 -598.90678m  699.9999m  236.3075n 
 -598.80678m  699.9999m  236.1166n 
 -598.70678m  699.9999m  235.9258n 
 -598.60678m  699.9999m  235.7352n 
 -598.50678m  699.9999m  235.5447n 
 -598.40678m  699.9999m  235.3545n 
 -598.30678m  699.9999m  235.1644n 
 -598.20678m  699.9999m  234.9745n 
 -598.10678m  699.9999m  234.7848n 
 -598.00678m  699.9999m  234.5953n 
 -597.90678m  699.9999m  234.4059n 
 -597.80678m  699.9999m  234.2168n 
 -597.70678m  699.9999m  234.0278n 
 -597.60678m  699.9999m  233.8389n 
 -597.50678m  699.9999m  233.6503n 
 -597.40678m  699.9999m  233.4618n 
 -597.30678m  699.9999m  233.2735n 
 -597.20678m  699.9999m  233.0854n 
 -597.10678m  699.9999m  232.8975n 
 -597.00678m  699.9999m  232.7097n 
 -596.90678m  699.9999m  232.5222n 
 -596.80678m  699.9999m  232.3348n 
 -596.70678m  699.9999m  232.1475n 
 -596.60678m  699.9999m  231.9605n 
 -596.50678m  699.9999m  231.7736n 
 -596.40678m  699.9999m  231.5869n 
 -596.30678m  699.9999m  231.4004n 
 -596.20678m  699.9999m  231.2141n 
 -596.10678m  699.9999m  231.0279n 
 -596.00678m  699.9999m  230.8419n 
 -595.90678m  699.9999m  230.6561n 
 -595.80678m  699.9999m  230.4704n 
 -595.70678m  699.9999m  230.2850n 
 -595.60678m  699.9999m  230.0997n 
 -595.50678m  699.9999m  229.9145n 
 -595.40678m  699.9999m  229.7296n 
 -595.30678m  699.9999m  229.5448n 
 -595.20678m  699.9999m  229.3602n 
 -595.10678m  699.9999m  229.1758n 
 -595.00678m  699.9999m  228.9916n 
 -594.90678m  699.9999m  228.8075n 
 -594.80678m  699.9999m  228.6236n 
 -594.70678m  699.9999m  228.4398n 
 -594.60678m  699.9999m  228.2563n 
 -594.50678m  699.9999m  228.0729n 
 -594.40678m  700.0000m  227.8897n 
 -594.30678m  700.0000m  227.7066n 
 -594.20678m  700.0000m  227.5238n 
 -594.10678m  700.0000m  227.3411n 
 -594.00678m  700.0000m  227.1585n 
 -593.90678m  700.0000m  226.9762n 
 -593.80678m  700.0000m  226.7940n 
 -593.70678m  700.0000m  226.6120n 
 -593.60678m  700.0000m  226.4302n 
 -593.50678m  700.0000m  226.2485n 
 -593.40678m  700.0000m  226.0670n 
 -593.30678m  700.0000m  225.8857n 
 -593.20678m  700.0000m  225.7045n 
 -593.10678m  700.0000m  225.5235n 
 -593.00678m  700.0000m  225.3427n 
 -592.90678m  700.0000m  225.1621n 
 -592.80678m  700.0000m  224.9816n 
 -592.70678m  700.0000m  224.8013n 
 -592.60678m  700.0000m  224.6211n 
 -592.50678m  700.0000m  224.4412n 
 -592.40678m  700.0000m  224.2614n 
 -592.30678m  700.0000m  224.0817n 
 -592.20678m  700.0000m  223.9023n 
 -592.10678m  700.0000m  223.7230n 
 -592.00678m  700.0000m  223.5438n 
 -591.90678m  700.0000m  223.3649n 
 -591.80678m  700.0000m  223.1861n 
 -591.70678m  700.0000m  223.0075n 
 -591.60678m  700.0000m  222.8290n 
 -591.50678m  700.0000m  222.6507n 
 -591.40678m  700.0000m  222.4726n 
 -591.30678m  700.0000m  222.2947n 
 -591.20678m  700.0000m  222.1169n 
 -591.10678m  700.0000m  221.9392n 
 -591.00678m  700.0000m  221.7618n 
 -590.90678m  700.0000m  221.5845n 
 -590.80678m  700.0000m  221.4074n 
 -590.70678m  700.0000m  221.2304n 
 -590.60678m  700.0000m  221.0536n 
 -590.50678m  700.0000m  220.8770n 
 -590.40678m  700.0000m  220.7006n 
 -590.30678m  700.0000m  220.5243n 
 -590.20678m  700.0000m  220.3482n 
 -590.10678m  700.0000m  220.1722n 
 -590.00678m  700.0000m  219.9964n 
 -589.90678m  700.0000m  219.8208n 
 -589.80678m  700.0000m  219.6453n 
 -589.70678m  700.0000m  219.4700n 
 -589.60678m  700.0000m  219.2949n 
 -589.50678m  700.0000m  219.1199n 
 -589.40678m  700.0000m  218.9451n 
 -589.30678m  700.0000m  218.7704n 
 -589.20678m  700.0000m  218.5960n 
 -589.10678m  700.0000m  218.4216n 
 -589.00678m  700.0000m  218.2475n 
 -588.90678m  700.0000m  218.0735n 
 -588.80678m  700.0000m  217.8997n 
 -588.70678m  700.0000m  217.7260n 
 -588.60678m  700.0000m  217.5525n 
 -588.50678m  700.0000m  217.3792n 
 -588.40678m  700.0000m  217.2060n 
 -588.30678m  700.0000m  217.0330n 
 -588.20678m  700.0000m  216.8601n 
 -588.10678m  700.0000m  216.6874n 
 -588.00678m  700.0000m  216.5149n 
 -587.90678m  700.0000m  216.3425n 
 -587.80678m  700.0000m  216.1703n 
 -587.70678m  700.0000m  215.9983n 
 -587.60678m  700.0000m  215.8264n 
 -587.50678m  700.0000m  215.6546n 
 -587.40678m  700.0000m  215.4831n 
 -587.30678m  700.0000m  215.3117n 
 -587.20678m  700.0000m  215.1404n 
 -587.10678m  700.0000m  214.9694n 
 -587.00678m  700.0000m  214.7984n 
 -586.90678m  700.0000m  214.6277n 
 -586.80678m  700.0000m  214.4571n 
 -586.70678m  700.0000m  214.2866n 
 -586.60678m  700.0000m  214.1163n 
 -586.50678m  700.0000m  213.9462n 
 -586.40678m  700.0000m  213.7762n 
 -586.30678m  700.0000m  213.6064n 
 -586.20678m  700.0000m  213.4368n 
 -586.10678m  700.0000m  213.2673n 
 -586.00678m  700.0000m  213.0980n 
 -585.90678m  700.0000m  212.9288n 
 -585.80678m  700.0000m  212.7598n 
 -585.70678m  700.0000m  212.5909n 
 -585.60678m  700.0000m  212.4222n 
 -585.50678m  700.0000m  212.2537n 
 -585.40678m  700.0000m  212.0853n 
 -585.30678m  700.0000m  211.9171n 
 -585.20678m  700.0000m  211.7490n 
 -585.10678m  700.0000m  211.5811n 
 -585.00678m  700.0000m  211.4133n 
 -584.90678m  700.0000m  211.2457n 
 -584.80678m  700.0000m  211.0783n 
 -584.70678m  700.0000m  210.9110n 
 -584.60678m  700.0000m  210.7439n 
 -584.50678m  700.0000m  210.5769n 
 -584.40678m  700.0000m  210.4101n 
 -584.30678m  700.0000m  210.2434n 
 -584.20678m  700.0000m  210.0769n 
 -584.10678m  700.0000m  209.9106n 
 -584.00678m  700.0000m  209.7444n 
 -583.90678m  700.0000m  209.5784n 
 -583.80678m  700.0000m  209.4125n 
 -583.70678m  700.0000m  209.2467n 
 -583.60678m  700.0000m  209.0812n 
 -583.50678m  700.0000m  208.9157n 
 -583.40678m  700.0000m  208.7505n 
 -583.30678m  700.0000m  208.5854n 
 -583.20678m  700.0000m  208.4204n 
 -583.10678m  700.0000m  208.2556n 
 -583.00678m  700.0000m  208.0909n 
 -582.90678m  700.0000m  207.9265n 
 -582.80678m  700.0000m  207.7621n 
 -582.70678m  700.0000m  207.5979n 
 -582.60678m  700.0000m  207.4339n 
 -582.50678m  700.0000m  207.2700n 
 -582.40678m  700.0000m  207.1063n 
 -582.30678m  700.0000m  206.9427n 
 -582.20678m  700.0000m  206.7793n 
 -582.10678m  700.0000m  206.6160n 
 -582.00678m  700.0000m  206.4529n 
 -581.90678m  700.0000m  206.2899n 
 -581.80678m  700.0000m  206.1271n 
 -581.70678m  700.0000m  205.9644n 
 -581.60678m  700.0000m  205.8019n 
 -581.50678m  700.0000m  205.6395n 
 -581.40678m  700.0000m  205.4773n 
 -581.30678m  700.0000m  205.3153n 
 -581.20678m  700.0000m  205.1534n 
 -581.10678m  700.0000m  204.9916n 
 -581.00678m  700.0000m  204.8300n 
 -580.90678m  700.0000m  204.6685n 
 -580.80678m  700.0000m  204.5072n 
 -580.70678m  700.0000m  204.3461n 
 -580.60678m  700.0000m  204.1851n 
 -580.50678m  700.0000m  204.0242n 
 -580.40678m  700.0000m  203.8635n 
 -580.30678m  700.0000m  203.7029n 
 -580.20678m  700.0000m  203.5425n 
 -580.10678m  700.0000m  203.3823n 
 -580.00678m  700.0000m  203.2222n 
 -579.90678m  700.0000m  203.0622n 
 -579.80678m  700.0000m  202.9024n 
 -579.70678m  700.0000m  202.7427n 
 -579.60678m  700.0000m  202.5832n 
 -579.50678m  700.0000m  202.4239n 
 -579.40678m  700.0000m  202.2646n 
 -579.30678m  700.0000m  202.1056n 
 -579.20678m  700.0000m  201.9467n 
 -579.10678m  700.0000m  201.7879n 
 -579.00678m  700.0000m  201.6293n 
 -578.90678m  700.0000m  201.4708n 
 -578.80678m  700.0000m  201.3124n 
 -578.70678m  700.0000m  201.1543n 
 -578.60678m  700.0000m  200.9962n 
 -578.50678m  700.0000m  200.8383n 
 -578.40678m  700.0000m  200.6806n 
 -578.30678m  700.0000m  200.5230n 
 -578.20678m  700.0000m  200.3656n 
 -578.10678m  700.0000m  200.2082n 
 -578.00678m  700.0000m  200.0511n 
 -577.90678m  700.0000m  199.8941n 
 -577.80678m  700.0000m  199.7372n 
 -577.70678m  700.0000m  199.5805n 
 -577.60678m  700.0000m  199.4239n 
 -577.50678m  700.0000m  199.2675n 
 -577.40678m  700.0000m  199.1112n 
 -577.30678m  700.0000m  198.9551n 
 -577.20678m  700.0000m  198.7991n 
 -577.10678m  700.0000m  198.6432n 
 -577.00678m  700.0000m  198.4875n 
 -576.90678m  700.0000m  198.3320n 
 -576.80678m  700.0000m  198.1766n 
 -576.70678m  700.0000m  198.0213n 
 -576.60678m  700.0000m  197.8662n 
 -576.50678m  700.0000m  197.7112n 
 -576.40678m  700.0000m  197.5564n 
 -576.30678m  700.0000m  197.4017n 
 -576.20678m  700.0000m  197.2471n 
 -576.10678m  700.0000m  197.0927n 
 -576.00678m  700.0000m  196.9384n 
 -575.90678m  700.0000m  196.7843n 
 -575.80678m  700.0000m  196.6304n 
 -575.70678m  700.0000m  196.4765n 
 -575.60678m  700.0000m  196.3228n 
 -575.50678m  700.0000m  196.1693n 
 -575.40678m  700.0000m  196.0159n 
 -575.30678m  700.0000m  195.8626n 
 -575.20678m  700.0000m  195.7095n 
 -575.10678m  700.0000m  195.5565n 
 -575.00678m  700.0000m  195.4037n 
 -574.90678m  700.0000m  195.2510n 
 -574.80678m  700.0000m  195.0984n 
 -574.70678m  700.0000m  194.9460n 
 -574.60678m  700.0000m  194.7937n 
 -574.50678m  700.0000m  194.6416n 
 -574.40678m  700.0000m  194.4896n 
 -574.30678m  700.0000m  194.3378n 
 -574.20678m  700.0000m  194.1861n 
 -574.10678m  700.0000m  194.0345n 
 -574.00678m  700.0000m  193.8831n 
 -573.90678m  700.0000m  193.7318n 
 -573.80678m  700.0000m  193.5806n 
 -573.70678m  700.0000m  193.4296n 
 -573.60678m  700.0000m  193.2788n 
 -573.50678m  700.0000m  193.1280n 
 -573.40678m  700.0000m  192.9775n 
 -573.30678m  700.0000m  192.8270n 
 -573.20678m  700.0000m  192.6767n 
 -573.10678m  700.0000m  192.5265n 
 -573.00678m  700.0000m  192.3765n 
 -572.90678m  700.0000m  192.2266n 
 -572.80678m  700.0000m  192.0769n 
 -572.70678m  700.0000m  191.9273n 
 -572.60678m  700.0000m  191.7778n 
 -572.50678m  700.0000m  191.6284n 
 -572.40678m  700.0000m  191.4793n 
 -572.30678m  700.0000m  191.3302n 
 -572.20678m  700.0000m  191.1813n 
 -572.10678m  700.0000m  191.0325n 
 -572.00678m  700.0000m  190.8838n 
 -571.90678m  700.0000m  190.7353n 
 -571.80678m  700.0000m  190.5870n 
 -571.70678m  700.0000m  190.4387n 
 -571.60678m  700.0000m  190.2906n 
 -571.50678m  700.0000m  190.1427n 
 -571.40678m  700.0000m  189.9949n 
 -571.30678m  700.0000m  189.8472n 
 -571.20678m  700.0000m  189.6996n 
 -571.10678m  700.0000m  189.5522n 
 -571.00678m  700.0000m  189.4049n 
 -570.90678m  700.0000m  189.2578n 
 -570.80678m  700.0000m  189.1108n 
 -570.70678m  700.0000m  188.9639n 
 -570.60678m  700.0000m  188.8172n 
 -570.50678m  700.0000m  188.6706n 
 -570.40678m  700.0000m  188.5241n 
 -570.30678m  700.0000m  188.3778n 
 -570.20678m  700.0000m  188.2316n 
 -570.10678m  700.0000m  188.0856n 
 -570.00678m  700.0000m  187.9396n 
 -569.90678m  700.0000m  187.7938n 
 -569.80678m  700.0000m  187.6482n 
 -569.70678m  700.0000m  187.5027n 
 -569.60678m  700.0000m  187.3573n 
 -569.50678m  700.0000m  187.2121n 
 -569.40678m  700.0000m  187.0669n 
 -569.30678m  700.0000m  186.9220n 
 -569.20678m  700.0000m  186.7771n 
 -569.10678m  700.0000m  186.6324n 
 -569.00678m  700.0000m  186.4878n 
 -568.90678m  700.0000m  186.3434n 
 -568.80678m  700.0000m  186.1991n 
 -568.70678m  700.0000m  186.0549n 
 -568.60678m  700.0000m  185.9108n 
 -568.50678m  700.0000m  185.7669n 
 -568.40678m  700.0000m  185.6232n 
 -568.30678m  700.0000m  185.4795n 
 -568.20678m  700.0000m  185.3360n 
 -568.10678m  700.0000m  185.1926n 
 -568.00678m  700.0000m  185.0494n 
 -567.90678m  700.0000m  184.9062n 
 -567.80678m  700.0000m  184.7633n 
 -567.70678m  700.0000m  184.6204n 
 -567.60678m  700.0000m  184.4777n 
 -567.50678m  700.0000m  184.3351n 
 -567.40678m  700.0000m  184.1926n 
 -567.30678m  700.0000m  184.0503n 
 -567.20678m  700.0000m  183.9081n 
 -567.10678m  700.0000m  183.7661n 
 -567.00678m  700.0000m  183.6241n 
 -566.90678m  700.0000m  183.4823n 
 -566.80678m  700.0000m  183.3406n 
 -566.70678m  700.0000m  183.1991n 
 -566.60678m  700.0000m  183.0577n 
 -566.50678m  700.0000m  182.9164n 
 -566.40678m  700.0000m  182.7753n 
 -566.30678m  700.0000m  182.6342n 
 -566.20678m  700.0000m  182.4934n 
 -566.10678m  700.0000m  182.3526n 
 -566.00678m  700.0000m  182.2120n 
 -565.90678m  700.0000m  182.0715n 
 -565.80678m  700.0000m  181.9311n 
 -565.70678m  700.0000m  181.7908n 
 -565.60678m  700.0000m  181.6507n 
 -565.50678m  700.0000m  181.5107n 
 -565.40678m  700.0000m  181.3709n 
 -565.30678m  700.0000m  181.2312n 
 -565.20678m  700.0000m  181.0916n 
 -565.10678m  700.0000m  180.9521n 
 -565.00678m  700.0000m  180.8128n 
 -564.90678m  700.0000m  180.6735n 
 -564.80678m  700.0000m  180.5345n 
 -564.70678m  700.0000m  180.3955n 
 -564.60678m  700.0000m  180.2567n 
 -564.50678m  700.0000m  180.1180n 
 -564.40678m  700.0000m  179.9794n 
 -564.30678m  700.0000m  179.8410n 
 -564.20678m  700.0000m  179.7026n 
 -564.10678m  700.0000m  179.5644n 
 -564.00678m  700.0000m  179.4264n 
 -563.90678m  700.0000m  179.2884n 
 -563.80678m  700.0000m  179.1506n 
 -563.70678m  700.0000m  179.0130n 
 -563.60678m  700.0000m  178.8754n 
 -563.50678m  700.0000m  178.7380n 
 -563.40678m  700.0000m  178.6007n 
 -563.30678m  700.0000m  178.4635n 
 -563.20678m  700.0000m  178.3264n 
 -563.10678m  700.0000m  178.1895n 
 -563.00678m  700.0000m  178.0527n 
 -562.90678m  700.0000m  177.9160n 
 -562.80678m  700.0000m  177.7795n 
 -562.70678m  700.0000m  177.6431n 
 -562.60678m  700.0000m  177.5068n 
 -562.50678m  700.0000m  177.3706n 
 -562.40678m  700.0000m  177.2346n 
 -562.30678m  700.0000m  177.0986n 
 -562.20678m  700.0000m  176.9628n 
 -562.10678m  700.0000m  176.8272n 
 -562.00678m  700.0000m  176.6916n 
 -561.90678m  700.0000m  176.5562n 
 -561.80678m  700.0000m  176.4209n 
 -561.70678m  700.0000m  176.2857n 
 -561.60678m  700.0000m  176.1507n 
 -561.50678m  700.0000m  176.0157n 
 -561.40678m  700.0000m  175.8809n 
 -561.30678m  700.0000m  175.7463n 
 -561.20678m  700.0000m  175.6117n 
 -561.10678m  700.0000m  175.4773n 
 -561.00678m  700.0000m  175.3430n 
 -560.90678m  700.0000m  175.2088n 
 -560.80678m  700.0000m  175.0747n 
 -560.70678m  700.0000m  174.9408n 
 -560.60678m  700.0000m  174.8070n 
 -560.50678m  700.0000m  174.6733n 
 -560.40678m  700.0000m  174.5397n 
 -560.30678m  700.0000m  174.4062n 
 -560.20678m  700.0000m  174.2729n 
 -560.10678m  700.0000m  174.1397n 
 -560.00678m  700.0000m  174.0066n 
 -559.90678m  700.0000m  173.8737n 
 -559.80678m  700.0000m  173.7408n 
 -559.70678m  700.0000m  173.6081n 
 -559.60678m  700.0000m  173.4755n 
 -559.50678m  700.0000m  173.3431n 
 -559.40678m  700.0000m  173.2107n 
 -559.30678m  700.0000m  173.0785n 
 -559.20678m  700.0000m  172.9464n 
 -559.10678m  700.0000m  172.8144n 
 -559.00678m  700.0000m  172.6825n 
 -558.90678m  700.0000m  172.5508n 
 -558.80678m  700.0000m  172.4191n 
 -558.70678m  700.0000m  172.2876n 
 -558.60678m  700.0000m  172.1563n 
 -558.50678m  700.0000m  172.0250n 
 -558.40678m  700.0000m  171.8939n 
 -558.30678m  700.0000m  171.7628n 
 -558.20678m  700.0000m  171.6319n 
 -558.10678m  700.0000m  171.5011n 
 -558.00678m  700.0000m  171.3705n 
 -557.90678m  700.0000m  171.2399n 
 -557.80678m  700.0000m  171.1095n 
 -557.70678m  700.0000m  170.9792n 
 -557.60678m  700.0000m  170.8490n 
 -557.50678m  700.0000m  170.7190n 
 -557.40678m  700.0000m  170.5890n 
 -557.30678m  700.0000m  170.4592n 
 -557.20678m  700.0000m  170.3295n 
 -557.10678m  700.0000m  170.1999n 
 -557.00678m  700.0000m  170.0704n 
 -556.90678m  700.0000m  169.9411n 
 -556.80678m  700.0000m  169.8118n 
 -556.70678m  700.0000m  169.6827n 
 -556.60678m  700.0000m  169.5537n 
 -556.50678m  700.0000m  169.4248n 
 -556.40678m  700.0000m  169.2961n 
 -556.30678m  700.0000m  169.1674n 
 -556.20678m  700.0000m  169.0389n 
 -556.10678m  700.0000m  168.9105n 
 -556.00678m  700.0000m  168.7822n 
 -555.90678m  700.0000m  168.6540n 
 -555.80678m  700.0000m  168.5260n 
 -555.70678m  700.0000m  168.3980n 
 -555.60678m  700.0000m  168.2702n 
 -555.50678m  700.0000m  168.1425n 
 -555.40678m  700.0000m  168.0149n 
 -555.30678m  700.0000m  167.8874n 
 -555.20678m  700.0000m  167.7601n 
 -555.10678m  700.0000m  167.6328n 
 -555.00678m  700.0000m  167.5057n 
 -554.90678m  700.0000m  167.3787n 
 -554.80678m  700.0000m  167.2518n 
 -554.70678m  700.0000m  167.1250n 
 -554.60678m  700.0000m  166.9983n 
 -554.50678m  700.0000m  166.8718n 
 -554.40678m  700.0000m  166.7454n 
 -554.30678m  700.0000m  166.6191n 
 -554.20678m  700.0000m  166.4929n 
 -554.10678m  700.0000m  166.3668n 
 -554.00678m  700.0000m  166.2408n 
 -553.90678m  700.0000m  166.1150n 
 -553.80678m  700.0000m  165.9892n 
 -553.70678m  700.0000m  165.8636n 
 -553.60678m  700.0000m  165.7381n 
 -553.50678m  700.0000m  165.6127n 
 -553.40678m  700.0000m  165.4874n 
 -553.30678m  700.0000m  165.3622n 
 -553.20678m  700.0000m  165.2372n 
 -553.10678m  700.0000m  165.1122n 
 -553.00678m  700.0000m  164.9874n 
 -552.90678m  700.0000m  164.8627n 
 -552.80678m  700.0000m  164.7381n 
 -552.70678m  700.0000m  164.6136n 
 -552.60678m  700.0000m  164.4893n 
 -552.50678m  700.0000m  164.3650n 
 -552.40678m  700.0000m  164.2409n 
 -552.30678m  700.0000m  164.1168n 
 -552.20678m  700.0000m  163.9929n 
 -552.10678m  700.0000m  163.8691n 
 -552.00678m  700.0000m  163.7454n 
 -551.90678m  700.0000m  163.6218n 
 -551.80678m  700.0000m  163.4984n 
 -551.70678m  700.0000m  163.3750n 
 -551.60678m  700.0000m  163.2518n 
 -551.50678m  700.0000m  163.1287n 
 -551.40678m  700.0000m  163.0056n 
 -551.30678m  700.0000m  162.8827n 
 -551.20678m  700.0000m  162.7599n 
 -551.10678m  700.0000m  162.6373n 
 -551.00678m  700.0000m  162.5147n 
 -550.90678m  700.0000m  162.3922n 
 -550.80678m  700.0000m  162.2699n 
 -550.70678m  700.0000m  162.1477n 
 -550.60678m  700.0000m  162.0255n 
 -550.50678m  700.0000m  161.9035n 
 -550.40678m  700.0000m  161.7816n 
 -550.30678m  700.0000m  161.6598n 
 -550.20678m  700.0000m  161.5381n 
 -550.10678m  700.0000m  161.4166n 
 -550.00678m  700.0000m  161.2951n 
 -549.90678m  700.0000m  161.1738n 
 -549.80678m  700.0000m  161.0525n 
 -549.70678m  700.0000m  160.9314n 
 -549.60678m  700.0000m  160.8104n 
 -549.50678m  700.0000m  160.6895n 
 -549.40678m  700.0000m  160.5687n 
 -549.30678m  700.0000m  160.4480n 
 -549.20678m  700.0000m  160.3274n 
 -549.10678m  700.0000m  160.2070n 
 -549.00678m  700.0000m  160.0866n 
 -548.90678m  700.0000m  159.9664n 
 -548.80678m  700.0000m  159.8462n 
 -548.70678m  700.0000m  159.7262n 
 -548.60678m  700.0000m  159.6063n 
 -548.50678m  700.0000m  159.4865n 
 -548.40678m  700.0000m  159.3668n 
 -548.30678m  700.0000m  159.2472n 
 -548.20678m  700.0000m  159.1277n 
 -548.10678m  700.0000m  159.0083n 
 -548.00678m  700.0000m  158.8890n 
 -547.90678m  700.0000m  158.7699n 
 -547.80678m  700.0000m  158.6508n 
 -547.70678m  700.0000m  158.5319n 
 -547.60678m  700.0000m  158.4130n 
 -547.50678m  700.0000m  158.2943n 
 -547.40678m  700.0000m  158.1757n 
 -547.30678m  700.0000m  158.0572n 
 -547.20678m  700.0000m  157.9388n 
 -547.10678m  700.0000m  157.8205n 
 -547.00678m  700.0000m  157.7023n 
 -546.90678m  700.0000m  157.5842n 
 -546.80678m  700.0000m  157.4662n 
 -546.70678m  700.0000m  157.3484n 
 -546.60678m  700.0000m  157.2306n 
 -546.50678m  700.0000m  157.1129n 
 -546.40678m  700.0000m  156.9954n 
 -546.30678m  700.0000m  156.8780n 
 -546.20678m  700.0000m  156.7606n 
 -546.10678m  700.0000m  156.6434n 
 -546.00678m  700.0000m  156.5263n 
 -545.90678m  700.0000m  156.4093n 
 -545.80678m  700.0000m  156.2923n 
 -545.70678m  700.0000m  156.1755n 
 -545.60678m  700.0000m  156.0588n 
 -545.50678m  700.0000m  155.9423n 
 -545.40678m  700.0000m  155.8258n 
 -545.30678m  700.0000m  155.7094n 
 -545.20678m  700.0000m  155.5931n 
 -545.10678m  700.0000m  155.4769n 
 -545.00678m  700.0000m  155.3609n 
 -544.90678m  700.0000m  155.2449n 
 -544.80678m  700.0000m  155.1291n 
 -544.70678m  700.0000m  155.0133n 
 -544.60678m  700.0000m  154.8977n 
 -544.50678m  700.0000m  154.7821n 
 -544.40678m  700.0000m  154.6667n 
 -544.30678m  700.0000m  154.5514n 
 -544.20678m  700.0000m  154.4361n 
 -544.10678m  700.0000m  154.3210n 
 -544.00678m  700.0000m  154.2060n 
 -543.90678m  700.0000m  154.0911n 
 -543.80678m  700.0000m  153.9763n 
 -543.70678m  700.0000m  153.8616n 
 -543.60678m  700.0000m  153.7470n 
 -543.50678m  700.0000m  153.6325n 
 -543.40678m  700.0000m  153.5181n 
 -543.30678m  700.0000m  153.4038n 
 -543.20678m  700.0000m  153.2896n 
 -543.10678m  700.0000m  153.1755n 
 -543.00678m  700.0000m  153.0615n 
 -542.90678m  700.0000m  152.9477n 
 -542.80678m  700.0000m  152.8339n 
 -542.70678m  700.0000m  152.7202n 
 -542.60678m  700.0000m  152.6067n 
 -542.50678m  700.0000m  152.4932n 
 -542.40678m  700.0000m  152.3798n 
 -542.30678m  700.0000m  152.2666n 
 -542.20678m  700.0000m  152.1534n 
 -542.10678m  700.0000m  152.0404n 
 -542.00678m  700.0000m  151.9274n 
 -541.90678m  700.0000m  151.8145n 
 -541.80678m  700.0000m  151.7018n 
 -541.70678m  700.0000m  151.5892n 
 -541.60678m  700.0000m  151.4766n 
 -541.50678m  700.0000m  151.3642n 
 -541.40678m  700.0000m  151.2518n 
 -541.30678m  700.0000m  151.1396n 
 -541.20678m  700.0000m  151.0274n 
 -541.10678m  700.0000m  150.9154n 
 -541.00678m  700.0000m  150.8035n 
 -540.90678m  700.0000m  150.6916n 
 -540.80678m  700.0000m  150.5799n 
 -540.70678m  700.0000m  150.4683n 
 -540.60678m  700.0000m  150.3567n 
 -540.50678m  700.0000m  150.2453n 
 -540.40678m  700.0000m  150.1340n 
 -540.30678m  700.0000m  150.0227n 
 -540.20678m  700.0000m  149.9116n 
 -540.10678m  700.0000m  149.8006n 
 -540.00678m  700.0000m  149.6896n 
 -539.90678m  700.0000m  149.5788n 
 -539.80678m  700.0000m  149.4681n 
 -539.70678m  700.0000m  149.3574n 
 -539.60678m  700.0000m  149.2469n 
 -539.50678m  700.0000m  149.1365n 
 -539.40678m  700.0000m  149.0261n 
 -539.30678m  700.0000m  148.9159n 
 -539.20678m  700.0000m  148.8058n 
 -539.10678m  700.0000m  148.6958n 
 -539.00678m  700.0000m  148.5858n 
 -538.90678m  700.0000m  148.4760n 
 -538.80678m  700.0000m  148.3662n 
 -538.70678m  700.0000m  148.2566n 
 -538.60678m  700.0000m  148.1471n 
 -538.50678m  700.0000m  148.0376n 
 -538.40678m  700.0000m  147.9283n 
 -538.30678m  700.0000m  147.8190n 
 -538.20678m  700.0000m  147.7099n 
 -538.10678m  700.0000m  147.6009n 
 -538.00678m  700.0000m  147.4919n 
 -537.90678m  700.0000m  147.3831n 
 -537.80678m  700.0000m  147.2743n 
 -537.70678m  700.0000m  147.1657n 
 -537.60678m  700.0000m  147.0571n 
 -537.50678m  700.0000m  146.9486n 
 -537.40678m  700.0000m  146.8403n 
 -537.30678m  700.0000m  146.7320n 
 -537.20678m  700.0000m  146.6239n 
 -537.10678m  700.0000m  146.5158n 
 -537.00678m  700.0000m  146.4078n 
 -536.90678m  700.0000m  146.2999n 
 -536.80678m  700.0000m  146.1922n 
 -536.70678m  700.0000m  146.0845n 
 -536.60678m  700.0000m  145.9769n 
 -536.50678m  700.0000m  145.8694n 
 -536.40678m  700.0000m  145.7620n 
 -536.30678m  700.0000m  145.6547n 
 -536.20678m  700.0000m  145.5476n 
 -536.10678m  700.0000m  145.4405n 
 -536.00678m  700.0000m  145.3335n 
 -535.90678m  700.0000m  145.2265n 
 -535.80678m  700.0000m  145.1197n 
 -535.70678m  700.0000m  145.0130n 
 -535.60678m  700.0000m  144.9064n 
 -535.50678m  700.0000m  144.7999n 
 -535.40678m  700.0000m  144.6935n 
 -535.30678m  700.0000m  144.5871n 
 -535.20678m  700.0000m  144.4809n 
 -535.10678m  700.0000m  144.3747n 
 -535.00678m  700.0000m  144.2687n 
 -534.90678m  700.0000m  144.1628n 
 -534.80678m  700.0000m  144.0569n 
 -534.70678m  700.0000m  143.9511n 
 -534.60678m  700.0000m  143.8455n 
 -534.50678m  700.0000m  143.7399n 
 -534.40678m  700.0000m  143.6344n 
 -534.30678m  700.0000m  143.5291n 
 -534.20678m  700.0000m  143.4238n 
 -534.10678m  700.0000m  143.3186n 
 -534.00678m  700.0000m  143.2135n 
 -533.90678m  700.0000m  143.1085n 
 -533.80678m  700.0000m  143.0036n 
 -533.70678m  700.0000m  142.8988n 
 -533.60678m  700.0000m  142.7940n 
 -533.50678m  700.0000m  142.6894n 
 -533.40678m  700.0000m  142.5849n 
 -533.30678m  700.0000m  142.4805n 
 -533.20678m  700.0000m  142.3761n 
 -533.10678m  700.0000m  142.2719n 
 -533.00678m  700.0000m  142.1677n 
 -532.90678m  700.0000m  142.0636n 
 -532.80678m  700.0000m  141.9597n 
 -532.70678m  700.0000m  141.8558n 
 -532.60678m  700.0000m  141.7520n 
 -532.50678m  700.0000m  141.6483n 
 -532.40678m  700.0000m  141.5447n 
 -532.30678m  700.0000m  141.4412n 
 -532.20678m  700.0000m  141.3378n 
 -532.10678m  700.0000m  141.2345n 
 -532.00678m  700.0000m  141.1313n 
 -531.90678m  700.0000m  141.0281n 
 -531.80678m  700.0000m  140.9251n 
 -531.70678m  700.0000m  140.8221n 
 -531.60678m  700.0000m  140.7193n 
 -531.50678m  700.0000m  140.6165n 
 -531.40678m  700.0000m  140.5139n 
 -531.30678m  700.0000m  140.4113n 
 -531.20678m  700.0000m  140.3088n 
 -531.10678m  700.0000m  140.2064n 
 -531.00678m  700.0000m  140.1041n 
 -530.90678m  700.0000m  140.0019n 
 -530.80678m  700.0000m  139.8997n 
 -530.70678m  700.0000m  139.7977n 
 -530.60678m  700.0000m  139.6958n 
 -530.50678m  700.0000m  139.5939n 
 -530.40678m  700.0000m  139.4922n 
 -530.30678m  700.0000m  139.3905n 
 -530.20678m  700.0000m  139.2889n 
 -530.10678m  700.0000m  139.1874n 
 -530.00678m  700.0000m  139.0861n 
 -529.90678m  700.0000m  138.9848n 
 -529.80678m  700.0000m  138.8835n 
 -529.70678m  700.0000m  138.7824n 
 -529.60678m  700.0000m  138.6814n 
 -529.50678m  700.0000m  138.5805n 
 -529.40678m  700.0000m  138.4796n 
 -529.30678m  700.0000m  138.3788n 
 -529.20678m  700.0000m  138.2782n 
 -529.10678m  700.0000m  138.1776n 
 -529.00678m  700.0000m  138.0771n 
 -528.90678m  700.0000m  137.9767n 
 -528.80678m  700.0000m  137.8764n 
 -528.70678m  700.0000m  137.7762n 
 -528.60678m  700.0000m  137.6760n 
 -528.50678m  700.0000m  137.5760n 
 -528.40678m  700.0000m  137.4760n 
 -528.30678m  700.0000m  137.3762n 
 -528.20678m  700.0000m  137.2764n 
 -528.10678m  700.0000m  137.1767n 
 -528.00678m  700.0000m  137.0771n 
 -527.90678m  700.0000m  136.9776n 
 -527.80678m  700.0000m  136.8782n 
 -527.70678m  700.0000m  136.7789n 
 -527.60678m  700.0000m  136.6796n 
 -527.50678m  700.0000m  136.5805n 
 -527.40678m  700.0000m  136.4814n 
 -527.30678m  700.0000m  136.3825n 
 -527.20678m  700.0000m  136.2836n 
 -527.10678m  700.0000m  136.1848n 
 -527.00678m  700.0000m  136.0861n 
 -526.90678m  700.0000m  135.9874n 
 -526.80678m  700.0000m  135.8889n 
 -526.70678m  700.0000m  135.7905n 
 -526.60678m  700.0000m  135.6921n 
 -526.50678m  700.0000m  135.5938n 
 -526.40678m  700.0000m  135.4956n 
 -526.30678m  700.0000m  135.3976n 
 -526.20678m  700.0000m  135.2995n 
 -526.10678m  700.0000m  135.2016n 
 -526.00678m  700.0000m  135.1038n 
 -525.90678m  700.0000m  135.0061n 
 -525.80678m  700.0000m  134.9084n 
 -525.70678m  700.0000m  134.8108n 
 -525.60678m  700.0000m  134.7133n 
 -525.50678m  700.0000m  134.6159n 
 -525.40678m  700.0000m  134.5186n 
 -525.30678m  700.0000m  134.4214n 
 -525.20678m  700.0000m  134.3243n 
 -525.10678m  700.0000m  134.2272n 
 -525.00678m  700.0000m  134.1303n 
 -524.90678m  700.0000m  134.0334n 
 -524.80678m  700.0000m  133.9366n 
 -524.70678m  700.0000m  133.8399n 
 -524.60678m  700.0000m  133.7433n 
 -524.50678m  700.0000m  133.6467n 
 -524.40678m  700.0000m  133.5503n 
 -524.30678m  700.0000m  133.4539n 
 -524.20678m  700.0000m  133.3576n 
 -524.10678m  700.0000m  133.2615n 
 -524.00678m  700.0000m  133.1653n 
 -523.90678m  700.0000m  133.0693n 
 -523.80678m  700.0000m  132.9734n 
 -523.70678m  700.0000m  132.8775n 
 -523.60678m  700.0000m  132.7818n 
 -523.50678m  700.0000m  132.6861n 
 -523.40678m  700.0000m  132.5905n 
 -523.30678m  700.0000m  132.4950n 
 -523.20678m  700.0000m  132.3996n 
 -523.10678m  700.0000m  132.3042n 
 -523.00678m  700.0000m  132.2090n 
 -522.90678m  700.0000m  132.1138n 
 -522.80678m  700.0000m  132.0187n 
 -522.70678m  700.0000m  131.9237n 
 -522.60678m  700.0000m  131.8288n 
 -522.50678m  700.0000m  131.7340n 
 -522.40678m  700.0000m  131.6393n 
 -522.30678m  700.0000m  131.5446n 
 -522.20678m  700.0000m  131.4500n 
 -522.10678m  700.0000m  131.3555n 
 -522.00678m  700.0000m  131.2611n 
 -521.90678m  700.0000m  131.1668n 
 -521.80678m  700.0000m  131.0725n 
 -521.70678m  700.0000m  130.9784n 
 -521.60678m  700.0000m  130.8843n 
 -521.50678m  700.0000m  130.7903n 
 -521.40678m  700.0000m  130.6964n 
 -521.30678m  700.0000m  130.6026n 
 -521.20678m  700.0000m  130.5089n 
 -521.10678m  700.0000m  130.4152n 
 -521.00678m  700.0000m  130.3216n 
 -520.90678m  700.0000m  130.2281n 
 -520.80678m  700.0000m  130.1347n 
 -520.70678m  700.0000m  130.0414n 
 -520.60678m  700.0000m  129.9482n 
 -520.50678m  700.0000m  129.8550n 
 -520.40678m  700.0000m  129.7619n 
 -520.30678m  700.0000m  129.6689n 
 -520.20678m  700.0000m  129.5760n 
 -520.10678m  700.0000m  129.4832n 
 -520.00678m  700.0000m  129.3904n 
 -519.90678m  700.0000m  129.2978n 
 -519.80678m  700.0000m  129.2052n 
 -519.70678m  700.0000m  129.1127n 
 -519.60678m  700.0000m  129.0203n 
 -519.50678m  700.0000m  128.9279n 
 -519.40678m  700.0000m  128.8357n 
 -519.30678m  700.0000m  128.7435n 
 -519.20678m  700.0000m  128.6514n 
 -519.10678m  700.0000m  128.5594n 
 -519.00678m  700.0000m  128.4675n 
 -518.90678m  700.0000m  128.3756n 
 -518.80678m  700.0000m  128.2839n 
 -518.70678m  700.0000m  128.1922n 
 -518.60678m  700.0000m  128.1006n 
 -518.50678m  700.0000m  128.0090n 
 -518.40678m  700.0000m  127.9176n 
 -518.30678m  700.0000m  127.8262n 
 -518.20678m  700.0000m  127.7350n 
 -518.10678m  700.0000m  127.6438n 
 -518.00678m  700.0000m  127.5526n 
 -517.90678m  700.0000m  127.4616n 
 -517.80678m  700.0000m  127.3707n 
 -517.70678m  700.0000m  127.2798n 
 -517.60678m  700.0000m  127.1890n 
 -517.50678m  700.0000m  127.0983n 
 -517.40678m  700.0000m  127.0076n 
 -517.30678m  700.0000m  126.9171n 
 -517.20678m  700.0000m  126.8266n 
 -517.10678m  700.0000m  126.7362n 
 -517.00678m  700.0000m  126.6459n 
 -516.90678m  700.0000m  126.5557n 
 -516.80678m  700.0000m  126.4655n 
 -516.70678m  700.0000m  126.3754n 
 -516.60678m  700.0000m  126.2854n 
 -516.50678m  700.0000m  126.1955n 
 -516.40678m  700.0000m  126.1057n 
 -516.30678m  700.0000m  126.0159n 
 -516.20678m  700.0000m  125.9262n 
 -516.10678m  700.0000m  125.8366n 
 -516.00678m  700.0000m  125.7471n 
 -515.90678m  700.0000m  125.6577n 
 -515.80678m  700.0000m  125.5683n 
 -515.70678m  700.0000m  125.4790n 
 -515.60678m  700.0000m  125.3898n 
 -515.50678m  700.0000m  125.3007n 
 -515.40678m  700.0000m  125.2117n 
 -515.30678m  700.0000m  125.1227n 
 -515.20678m  700.0000m  125.0338n 
 -515.10678m  700.0000m  124.9450n 
 -515.00678m  700.0000m  124.8563n 
 -514.90678m  700.0000m  124.7676n 
 -514.80678m  700.0000m  124.6790n 
 -514.70678m  700.0000m  124.5905n 
 -514.60678m  700.0000m  124.5021n 
 -514.50678m  700.0000m  124.4138n 
 -514.40678m  700.0000m  124.3255n 
 -514.30678m  700.0000m  124.2373n 
 -514.20678m  700.0000m  124.1492n 
 -514.10678m  700.0000m  124.0612n 
 -514.00678m  700.0000m  123.9732n 
 -513.90678m  700.0000m  123.8854n 
 -513.80678m  700.0000m  123.7976n 
 -513.70678m  700.0000m  123.7098n 
 -513.60678m  700.0000m  123.6222n 
 -513.50678m  700.0000m  123.5346n 
 -513.40678m  700.0000m  123.4471n 
 -513.30678m  700.0000m  123.3597n 
 -513.20678m  700.0000m  123.2724n 
 -513.10678m  700.0000m  123.1851n 
 -513.00678m  700.0000m  123.0980n 
 -512.90678m  700.0000m  123.0109n 
 -512.80678m  700.0000m  122.9238n 
 -512.70678m  700.0000m  122.8369n 
 -512.60678m  700.0000m  122.7500n 
 -512.50678m  700.0000m  122.6632n 
 -512.40678m  700.0000m  122.5765n 
 -512.30678m  700.0000m  122.4898n 
 -512.20678m  700.0000m  122.4033n 
 -512.10678m  700.0000m  122.3168n 
 -512.00678m  700.0000m  122.2304n 
 -511.90678m  700.0000m  122.1440n 
 -511.80678m  700.0000m  122.0578n 
 -511.70678m  700.0000m  121.9716n 
 -511.60678m  700.0000m  121.8855n 
 -511.50678m  700.0000m  121.7994n 
 -511.40678m  700.0000m  121.7135n 
 -511.30678m  700.0000m  121.6276n 
 -511.20678m  700.0000m  121.5418n 
 -511.10678m  700.0000m  121.4560n 
 -511.00678m  700.0000m  121.3704n 
 -510.90678m  700.0000m  121.2848n 
 -510.80678m  700.0000m  121.1993n 
 -510.70678m  700.0000m  121.1139n 
 -510.60678m  700.0000m  121.0285n 
 -510.50678m  700.0000m  120.9432n 
 -510.40678m  700.0000m  120.8580n 
 -510.30678m  700.0000m  120.7729n 
 -510.20678m  700.0000m  120.6878n 
 -510.10678m  700.0000m  120.6028n 
 -510.00678m  700.0000m  120.5179n 
 -509.90678m  700.0000m  120.4331n 
 -509.80678m  700.0000m  120.3483n 
 -509.70678m  700.0000m  120.2637n 
 -509.60678m  700.0000m  120.1790n 
 -509.50678m  700.0000m  120.0945n 
 -509.40678m  700.0000m  120.0100n 
 -509.30678m  700.0000m  119.9257n 
 -509.20678m  700.0000m  119.8413n 
 -509.10678m  700.0000m  119.7571n 
 -509.00678m  700.0000m  119.6729n 
 -508.90678m  700.0000m  119.5888n 
 -508.80678m  700.0000m  119.5048n 
 -508.70678m  700.0000m  119.4209n 
 -508.60678m  700.0000m  119.3370n 
 -508.50678m  700.0000m  119.2532n 
 -508.40678m  700.0000m  119.1695n 
 -508.30678m  700.0000m  119.0858n 
 -508.20678m  700.0000m  119.0023n 
 -508.10678m  700.0000m  118.9188n 
 -508.00678m  700.0000m  118.8353n 
 -507.90678m  700.0000m  118.7520n 
 -507.80678m  700.0000m  118.6687n 
 -507.70678m  700.0000m  118.5855n 
 -507.60678m  700.0000m  118.5023n 
 -507.50678m  700.0000m  118.4193n 
 -507.40678m  700.0000m  118.3363n 
 -507.30678m  700.0000m  118.2534n 
 -507.20678m  700.0000m  118.1705n 
 -507.10678m  700.0000m  118.0877n 
 -507.00678m  700.0000m  118.0050n 
 -506.90678m  700.0000m  117.9224n 
 -506.80678m  700.0000m  117.8399n 
 -506.70678m  700.0000m  117.7574n 
 -506.60678m  700.0000m  117.6750n 
 -506.50678m  700.0000m  117.5926n 
 -506.40678m  700.0000m  117.5103n 
 -506.30678m  700.0000m  117.4281n 
 -506.20678m  700.0000m  117.3460n 
 -506.10678m  700.0000m  117.2640n 
 -506.00678m  700.0000m  117.1820n 
 -505.90678m  700.0000m  117.1001n 
 -505.80678m  700.0000m  117.0182n 
 -505.70678m  700.0000m  116.9365n 
 -505.60678m  700.0000m  116.8548n 
 -505.50678m  700.0000m  116.7732n 
 -505.40678m  700.0000m  116.6916n 
 -505.30678m  700.0000m  116.6101n 
 -505.20678m  700.0000m  116.5287n 
 -505.10678m  700.0000m  116.4474n 
 -505.00678m  700.0000m  116.3661n 
 -504.90678m  700.0000m  116.2849n 
 -504.80678m  700.0000m  116.2038n 
 -504.70678m  700.0000m  116.1227n 
 -504.60678m  700.0000m  116.0418n 
 -504.50678m  700.0000m  115.9608n 
 -504.40678m  700.0000m  115.8800n 
 -504.30678m  700.0000m  115.7992n 
 -504.20678m  700.0000m  115.7185n 
 -504.10678m  700.0000m  115.6379n 
 -504.00678m  700.0000m  115.5573n 
 -503.90678m  700.0000m  115.4769n 
 -503.80678m  700.0000m  115.3964n 
 -503.70678m  700.0000m  115.3161n 
 -503.60678m  700.0000m  115.2358n 
 -503.50678m  700.0000m  115.1556n 
 -503.40678m  700.0000m  115.0755n 
 -503.30678m  700.0000m  114.9954n 
 -503.20678m  700.0000m  114.9154n 
 -503.10678m  700.0000m  114.8355n 
 -503.00678m  700.0000m  114.7556n 
 -502.90678m  700.0000m  114.6758n 
 -502.80678m  700.0000m  114.5961n 
 -502.70678m  700.0000m  114.5165n 
 -502.60678m  700.0000m  114.4369n 
 -502.50678m  700.0000m  114.3574n 
 -502.40678m  700.0000m  114.2779n 
 -502.30678m  700.0000m  114.1985n 
 -502.20678m  700.0000m  114.1192n 
 -502.10678m  700.0000m  114.0400n 
 -502.00678m  700.0000m  113.9608n 
 -501.90678m  700.0000m  113.8817n 
 -501.80678m  700.0000m  113.8027n 
 -501.70678m  700.0000m  113.7238n 
 -501.60678m  700.0000m  113.6449n 
 -501.50678m  700.0000m  113.5661n 
 -501.40678m  700.0000m  113.4873n 
 -501.30678m  700.0000m  113.4086n 
 -501.20678m  700.0000m  113.3300n 
 -501.10678m  700.0000m  113.2515n 
 -501.00678m  700.0000m  113.1730n 
 -500.90678m  700.0000m  113.0946n 
 -500.80678m  700.0000m  113.0162n 
 -500.70678m  700.0000m  112.9380n 
 -500.60678m  700.0000m  112.8597n 
 -500.50678m  700.0000m  112.7816n 
 -500.40678m  700.0000m  112.7035n 
 -500.30678m  700.0000m  112.6255n 
 -500.20678m  700.0000m  112.5476n 
 -500.10678m  700.0000m  112.4697n 
 -500.00678m  700.0000m  112.3919n 
 -499.90678m  700.0000m  112.3142n 
 -499.80678m  700.0000m  112.2365n 
 -499.70678m  700.0000m  112.1590n 
 -499.60678m  700.0000m  112.0814n 
 -499.50678m  700.0000m  112.0040n 
 -499.40678m  700.0000m  111.9266n 
 -499.30678m  700.0000m  111.8492n 
 -499.20678m  700.0000m  111.7720n 
 -499.10678m  700.0000m  111.6948n 
 -499.00678m  700.0000m  111.6177n 
 -498.90678m  700.0000m  111.5406n 
 -498.80678m  700.0000m  111.4636n 
 -498.70678m  700.0000m  111.3867n 
 -498.60678m  700.0000m  111.3098n 
 -498.50678m  700.0000m  111.2331n 
 -498.40678m  700.0000m  111.1563n 
 -498.30678m  700.0000m  111.0797n 
 -498.20678m  700.0000m  111.0031n 
 -498.10678m  700.0000m  110.9266n 
 -498.00678m  700.0000m  110.8501n 
 -497.90678m  700.0000m  110.7737n 
 -497.80678m  700.0000m  110.6974n 
 -497.70678m  700.0000m  110.6211n 
 -497.60678m  700.0000m  110.5449n 
 -497.50678m  700.0000m  110.4688n 
 -497.40678m  700.0000m  110.3928n 
 -497.30678m  700.0000m  110.3168n 
 -497.20678m  700.0000m  110.2408n 
 -497.10678m  700.0000m  110.1650n 
 -497.00678m  700.0000m  110.0892n 
 -496.90678m  700.0000m  110.0134n 
 -496.80678m  700.0000m  109.9378n 
 -496.70678m  700.0000m  109.8622n 
 -496.60678m  700.0000m  109.7867n 
 -496.50678m  700.0000m  109.7112n 
 -496.40678m  700.0000m  109.6358n 
 -496.30678m  700.0000m  109.5604n 
 -496.20678m  700.0000m  109.4852n 
 -496.10678m  700.0000m  109.4100n 
 -496.00678m  700.0000m  109.3348n 
 -495.90678m  700.0000m  109.2597n 
 -495.80678m  700.0000m  109.1847n 
 -495.70678m  700.0000m  109.1098n 
 -495.60678m  700.0000m  109.0349n 
 -495.50678m  700.0000m  108.9601n 
 -495.40678m  700.0000m  108.8853n 
 -495.30678m  700.0000m  108.8107n 
 -495.20678m  700.0000m  108.7360n 
 -495.10678m  700.0000m  108.6615n 
 -495.00678m  700.0000m  108.5870n 
 -494.90678m  700.0000m  108.5125n 
 -494.80678m  700.0000m  108.4382n 
 -494.70678m  700.0000m  108.3639n 
 -494.60678m  700.0000m  108.2896n 
 -494.50678m  700.0000m  108.2155n 
 -494.40678m  700.0000m  108.1414n 
 -494.30678m  700.0000m  108.0673n 
 -494.20678m  700.0000m  107.9933n 
 -494.10678m  700.0000m  107.9194n 
 -494.00678m  700.0000m  107.8456n 
 -493.90678m  700.0000m  107.7718n 
 -493.80678m  700.0000m  107.6981n 
 -493.70678m  700.0000m  107.6244n 
 -493.60678m  700.0000m  107.5508n 
 -493.50678m  700.0000m  107.4773n 
 -493.40678m  700.0000m  107.4038n 
 -493.30678m  700.0000m  107.3304n 
 -493.20678m  700.0000m  107.2571n 
 -493.10678m  700.0000m  107.1838n 
 -493.00678m  700.0000m  107.1106n 
 -492.90678m  700.0000m  107.0374n 
 -492.80678m  700.0000m  106.9643n 
 -492.70678m  700.0000m  106.8913n 
 -492.60678m  700.0000m  106.8183n 
 -492.50678m  700.0000m  106.7454n 
 -492.40678m  700.0000m  106.6726n 
 -492.30678m  700.0000m  106.5998n 
 -492.20678m  700.0000m  106.5271n 
 -492.10678m  700.0000m  106.4545n 
 -492.00678m  700.0000m  106.3819n 
 -491.90678m  700.0000m  106.3093n 
 -491.80678m  700.0000m  106.2369n 
 -491.70678m  700.0000m  106.1645n 
 -491.60678m  700.0000m  106.0921n 
 -491.50678m  700.0000m  106.0199n 
 -491.40678m  700.0000m  105.9477n 
 -491.30678m  700.0000m  105.8755n 
 -491.20678m  700.0000m  105.8034n 
 -491.10678m  700.0000m  105.7314n 
 -491.00678m  700.0000m  105.6594n 
 -490.90678m  700.0000m  105.5875n 
 -490.80678m  700.0000m  105.5157n 
 -490.70678m  700.0000m  105.4439n 
 -490.60678m  700.0000m  105.3722n 
 -490.50678m  700.0000m  105.3005n 
 -490.40678m  700.0000m  105.2290n 
 -490.30678m  700.0000m  105.1574n 
 -490.20678m  700.0000m  105.0860n 
 -490.10678m  700.0000m  105.0145n 
 -490.00678m  700.0000m  104.9432n 
 -489.90678m  700.0000m  104.8719n 
 -489.80678m  700.0000m  104.8007n 
 -489.70678m  700.0000m  104.7295n 
[...]
  657.29322m  385.7154n  699.9999m 
  657.39322m  386.0505n  699.9999m 
  657.49322m  386.3861n  699.9999m 
  657.59322m  386.7219n  699.9999m 
  657.69322m  387.0581n  699.9999m 
  657.79322m  387.3946n  699.9999m 
  657.89322m  387.7314n  699.9999m 
  657.99322m  388.0686n  699.9999m 
  658.09322m  388.4060n  699.9999m 
  658.19322m  388.7439n  699.9999m 
  658.29322m  389.0820n  699.9999m 
  658.39322m  389.4205n  699.9999m 
  658.49322m  389.7593n  699.9999m 
  658.59322m  390.0985n  699.9999m 
  658.69322m  390.4379n  699.9999m 
  658.79322m  390.7777n  699.9999m 
  658.89322m  391.1179n  699.9999m 
  658.99322m  391.4584n  699.9999m 
  659.09322m  391.7992n  699.9999m 
  659.19322m  392.1403n  699.9999m 
  659.29322m  392.4818n  699.9999m 
  659.39322m  392.8236n  699.9999m 
  659.49322m  393.1658n  699.9999m 
  659.59322m  393.5083n  699.9999m 
  659.69322m  393.8511n  699.9999m 
  659.79322m  394.1943n  699.9999m 
  659.89322m  394.5378n  699.9999m 
  659.99322m  394.8816n  699.9999m 
  660.09322m  395.2258n  699.9999m 
  660.19322m  395.5703n  699.9999m 
  660.29322m  395.9151n  699.9999m 
  660.39322m  396.2603n  699.9999m 
  660.49322m  396.6058n  699.9999m 
  660.59322m  396.9517n  699.9999m 
  660.69322m  397.2979n  699.9999m 
  660.79322m  397.6444n  699.9999m 
  660.89322m  397.9913n  699.9999m 
  660.99322m  398.3386n  699.9999m 
  661.09322m  398.6861n  699.9999m 
  661.19322m  399.0340n  699.9999m 
  661.29322m  399.3823n  699.9999m 
  661.39322m  399.7309n  699.9999m 
  661.49322m  400.0798n  699.9999m 
  661.59322m  400.4291n  699.9999m 
  661.69322m  400.7787n  699.9999m 
  661.79322m  401.1287n  699.9999m 
  661.89322m  401.4790n  699.9999m 
  661.99322m  401.8296n  699.9999m 
  662.09322m  402.1806n  699.9999m 
  662.19322m  402.5320n  699.9999m 
  662.29322m  402.8837n  699.9999m 
  662.39322m  403.2357n  699.9999m 
  662.49322m  403.5881n  699.9999m 
  662.59322m  403.9408n  699.9999m 
  662.69322m  404.2939n  699.9999m 
  662.79322m  404.6473n  699.9999m 
  662.89322m  405.0010n  699.9999m 
  662.99322m  405.3552n  699.9999m 
  663.09322m  405.7096n  699.9999m 
  663.19322m  406.0644n  699.9999m 
  663.29322m  406.4196n  699.9999m 
  663.39322m  406.7751n  699.9999m 
  663.49322m  407.1310n  699.9999m 
  663.59322m  407.4872n  699.9999m 
  663.69322m  407.8437n  699.9999m 
  663.79322m  408.2006n  699.9999m 
  663.89322m  408.5579n  699.9999m 
  663.99322m  408.9155n  699.9999m 
  664.09322m  409.2735n  699.9999m 
  664.19322m  409.6318n  699.9999m 
  664.29322m  409.9904n  699.9999m 
  664.39322m  410.3495n  699.9999m 
  664.49322m  410.7088n  699.9999m 
  664.59322m  411.0686n  699.9999m 
  664.69322m  411.4287n  699.9999m 
  664.79322m  411.7891n  699.9999m 
  664.89322m  412.1499n  699.9999m 
  664.99322m  412.5110n  699.9999m 
  665.09322m  412.8725n  699.9999m 
  665.19322m  413.2344n  699.9999m 
  665.29322m  413.5966n  699.9999m 
  665.39322m  413.9592n  699.9999m 
  665.49322m  414.3221n  699.9999m 
  665.59322m  414.6854n  699.9999m 
  665.69322m  415.0490n  699.9999m 
  665.79322m  415.4130n  699.9999m 
  665.89322m  415.7774n  699.9999m 
  665.99322m  416.1421n  699.9999m 
  666.09322m  416.5072n  699.9999m 
  666.19322m  416.8726n  699.9999m 
  666.29322m  417.2384n  699.9999m 
  666.39322m  417.6046n  699.9999m 
  666.49322m  417.9711n  699.9999m 
  666.59322m  418.3380n  699.9999m 
  666.69322m  418.7052n  699.9999m 
  666.79322m  419.0728n  699.9999m 
  666.89322m  419.4408n  699.9999m 
  666.99322m  419.8091n  699.9999m 
  667.09322m  420.1778n  699.9999m 
  667.19322m  420.5469n  699.9999m 
  667.29322m  420.9163n  699.9999m 
  667.39322m  421.2861n  699.9999m 
  667.49322m  421.6562n  699.9999m 
  667.59322m  422.0267n  699.9999m 
  667.69322m  422.3976n  699.9999m 
  667.79322m  422.7689n  699.9999m 
  667.89322m  423.1405n  699.9999m 
  667.99322m  423.5124n  699.9999m 
  668.09322m  423.8848n  699.9999m 
  668.19322m  424.2575n  699.9999m 
  668.29322m  424.6306n  699.9999m 
  668.39322m  425.0040n  699.9999m 
  668.49322m  425.3778n  699.9999m 
  668.59322m  425.7520n  699.9999m 
  668.69322m  426.1266n  699.9999m 
  668.79322m  426.5015n  699.9999m 
  668.89322m  426.8768n  699.9999m 
  668.99322m  427.2524n  699.9999m 
  669.09322m  427.6285n  699.9999m 
  669.19322m  428.0049n  699.9999m 
  669.29322m  428.3816n  699.9999m 
  669.39322m  428.7588n  699.9999m 
  669.49322m  429.1363n  699.9999m 
  669.59322m  429.5142n  699.9999m 
  669.69322m  429.8925n  699.9999m 
  669.79322m  430.2711n  699.9999m 
  669.89322m  430.6501n  699.9999m 
  669.99322m  431.0295n  699.9999m 
  670.09322m  431.4093n  699.9999m 
  670.19322m  431.7894n  699.9999m 
  670.29322m  432.1699n  699.9999m 
  670.39322m  432.5508n  699.9999m 
  670.49322m  432.9321n  699.9999m 
  670.59322m  433.3137n  699.9999m 
  670.69322m  433.6957n  699.9999m 
  670.79322m  434.0781n  699.9999m 
  670.89322m  434.4609n  699.9999m 
  670.99322m  434.8440n  699.9999m 
  671.09322m  435.2276n  699.9999m 
  671.19322m  435.6115n  699.9999m 
  671.29322m  435.9957n  699.9999m 
  671.39322m  436.3804n  699.9999m 
  671.49322m  436.7655n  699.9999m 
  671.59322m  437.1509n  699.9999m 
  671.69322m  437.5367n  699.9999m 
  671.79322m  437.9229n  699.9999m 
  671.89322m  438.3094n  699.9999m 
  671.99322m  438.6964n  699.9999m 
  672.09322m  439.0837n  699.9999m 
  672.19322m  439.4715n  699.9999m 
  672.29322m  439.8596n  699.9999m 
  672.39322m  440.2480n  699.9999m 
  672.49322m  440.6369n  699.9999m 
  672.59322m  441.0262n  699.9999m 
  672.69322m  441.4158n  699.9999m 
  672.79322m  441.8058n  699.9999m 
  672.89322m  442.1962n  699.9999m 
  672.99322m  442.5870n  699.9999m 
  673.09322m  442.9782n  699.9999m 
  673.19322m  443.3698n  699.9999m 
  673.29322m  443.7617n  699.9999m 
  673.39322m  444.1541n  699.9999m 
  673.49322m  444.5468n  699.9999m 
  673.59322m  444.9399n  699.9999m 
  673.69322m  445.3334n  699.9999m 
  673.79322m  445.7273n  699.9999m 
  673.89322m  446.1216n  699.9999m 
  673.99322m  446.5163n  699.9999m 
  674.09322m  446.9114n  699.9999m 
  674.19322m  447.3068n  699.9999m 
  674.29322m  447.7027n  699.9999m 
  674.39322m  448.0989n  699.9999m 
  674.49322m  448.4956n  699.9999m 
  674.59322m  448.8926n  699.9999m 
  674.69322m  449.2900n  699.9999m 
  674.79322m  449.6878n  699.9999m 
  674.89322m  450.0860n  699.9999m 
  674.99322m  450.4847n  699.9999m 
  675.09322m  450.8837n  699.9999m 
  675.19322m  451.2830n  699.9999m 
  675.29322m  451.6828n  699.9999m 
  675.39322m  452.0830n  699.9999m 
  675.49322m  452.4836n  699.9999m 
  675.59322m  452.8846n  699.9999m 
  675.69322m  453.2860n  699.9999m 
  675.79322m  453.6877n  699.9999m 
  675.89322m  454.0899n  699.9999m 
  675.99322m  454.4925n  699.9999m 
  676.09322m  454.8954n  699.9999m 
  676.19322m  455.2988n  699.9999m 
  676.29322m  455.7026n  699.9999m 
  676.39322m  456.1067n  699.9999m 
  676.49322m  456.5113n  699.9999m 
  676.59322m  456.9163n  699.9999m 
  676.69322m  457.3216n  699.9999m 
  676.79322m  457.7274n  699.9999m 
  676.89322m  458.1336n  699.9999m 
  676.99322m  458.5402n  699.9999m 
  677.09322m  458.9471n  699.9999m 
  677.19322m  459.3545n  699.9999m 
  677.29322m  459.7623n  699.9999m 
  677.39322m  460.1705n  699.9999m 
  677.49322m  460.5791n  699.9999m 
  677.59322m  460.9881n  699.9999m 
  677.69322m  461.3975n  699.9999m 
  677.79322m  461.8073n  699.9999m 
  677.89322m  462.2175n  699.9999m 
  677.99322m  462.6282n  699.9999m 
  678.09322m  463.0392n  699.9999m 
  678.19322m  463.4506n  699.9999m 
  678.29322m  463.8625n  699.9999m 
  678.39322m  464.2748n  699.9999m 
  678.49322m  464.6874n  699.9999m 
  678.59322m  465.1005n  699.9999m 
  678.69322m  465.5140n  699.9999m 
  678.79322m  465.9279n  699.9999m 
  678.89322m  466.3422n  699.9999m 
  678.99322m  466.7569n  699.9999m 
  679.09322m  467.1720n  699.9999m 
  679.19322m  467.5876n  699.9999m 
  679.29322m  468.0035n  699.9999m 
  679.39322m  468.4199n  699.9999m 
  679.49322m  468.8367n  699.9999m 
  679.59322m  469.2539n  699.9999m 
  679.69322m  469.6715n  699.9999m 
  679.79322m  470.0895n  699.9999m 
  679.89322m  470.5080n  699.9999m 
  679.99322m  470.9268n  699.9999m 
  680.09322m  471.3461n  699.9999m 
  680.19322m  471.7658n  699.9999m 
  680.29322m  472.1859n  699.9999m 
  680.39322m  472.6064n  699.9999m 
  680.49322m  473.0273n  699.9999m 
  680.59322m  473.4487n  699.9999m 
  680.69322m  473.8705n  699.9999m 
  680.79322m  474.2927n  699.9999m 
  680.89322m  474.7153n  699.9999m 
  680.99322m  475.1383n  699.9999m 
  681.09322m  475.5618n  699.9999m 
  681.19322m  475.9856n  699.9999m 
  681.29322m  476.4099n  699.9999m 
  681.39322m  476.8347n  699.9999m 
  681.49322m  477.2598n  699.9999m 
  681.59322m  477.6854n  699.9999m 
  681.69322m  478.1114n  699.9999m 
  681.79322m  478.5378n  699.9999m 
  681.89322m  478.9646n  699.9999m 
  681.99322m  479.3919n  699.9999m 
  682.09322m  479.8195n  699.9999m 
  682.19322m  480.2476n  699.9999m 
  682.29322m  480.6762n  699.9999m 
  682.39322m  481.1051n  699.9999m 
  682.49322m  481.5345n  699.9999m 
  682.59322m  481.9643n  699.9999m 
  682.69322m  482.3946n  699.9999m 
  682.79322m  482.8252n  699.9999m 
  682.89322m  483.2563n  699.9999m 
  682.99322m  483.6879n  699.9999m 
  683.09322m  484.1198n  699.9999m 
  683.19322m  484.5522n  699.9999m 
  683.29322m  484.9850n  699.9999m 
  683.39322m  485.4183n  699.9999m 
  683.49322m  485.8519n  699.9999m 
  683.59322m  486.2861n  699.9999m 
  683.69322m  486.7206n  699.9999m 
  683.79322m  487.1556n  699.9999m 
  683.89322m  487.5910n  699.9999m 
  683.99322m  488.0268n  699.9999m 
  684.09322m  488.4631n  699.9999m 
  684.19322m  488.8998n  699.9999m 
  684.29322m  489.3369n  699.9999m 
  684.39322m  489.7745n  699.9999m 
  684.49322m  490.2125n  699.9999m 
  684.59322m  490.6510n  699.9999m 
  684.69322m  491.0899n  699.9999m 
  684.79322m  491.5292n  699.9999m 
  684.89322m  491.9690n  699.9999m 
  684.99322m  492.4091n  699.9999m 
  685.09322m  492.8498n  699.9999m 
  685.19322m  493.2909n  699.9999m 
  685.29322m  493.7324n  699.9999m 
  685.39322m  494.1743n  699.9999m 
  685.49322m  494.6167n  699.9999m 
  685.59322m  495.0596n  699.9999m 
  685.69322m  495.5028n  699.9999m 
  685.79322m  495.9466n  699.9999m 
  685.89322m  496.3907n  699.9999m 
  685.99322m  496.8353n  699.9999m 
  686.09322m  497.2804n  699.9999m 
  686.19322m  497.7259n  699.9999m 
  686.29322m  498.1718n  699.9999m 
  686.39322m  498.6182n  699.9999m 
  686.49322m  499.0650n  699.9999m 
  686.59322m  499.5123n  699.9999m 
  686.69322m  499.9600n  699.9999m 
  686.79322m  500.4081n  699.9999m 
  686.89322m  500.8567n  699.9999m 
  686.99322m  501.3058n  699.9999m 
  687.09322m  501.7553n  699.9999m 
  687.19322m  502.2053n  699.9999m 
  687.29322m  502.6557n  699.9999m 
  687.39322m  503.1065n  699.9999m 
  687.49322m  503.5578n  699.9999m 
  687.59322m  504.0096n  699.9999m 
  687.69322m  504.4618n  699.9999m 
  687.79322m  504.9144n  699.9999m 
  687.89322m  505.3675n  699.9999m 
  687.99322m  505.8211n  699.9999m 
  688.09322m  506.2751n  699.9999m 
  688.19322m  506.7295n  699.9999m 
  688.29322m  507.1844n  699.9999m 
  688.39322m  507.6398n  699.9999m 
  688.49322m  508.0956n  699.9999m 
  688.59322m  508.5519n  699.9999m 
  688.69322m  509.0086n  699.9999m 
  688.79322m  509.4658n  699.9999m 
  688.89322m  509.9235n  699.9999m 
  688.99322m  510.3816n  699.9999m 
  689.09322m  510.8401n  699.9999m 
  689.19322m  511.2991n  699.9999m 
  689.29322m  511.7586n  699.9999m 
  689.39322m  512.2186n  699.9999m 
  689.49322m  512.6789n  699.9999m 
  689.59322m  513.1398n  699.9999m 
  689.69322m  513.6011n  699.9999m 
  689.79322m  514.0629n  699.9999m 
  689.89322m  514.5251n  699.9999m 
  689.99322m  514.9878n  699.9999m 
  690.09322m  515.4510n  699.9999m 
  690.19322m  515.9146n  699.9999m 
  690.29322m  516.3787n  699.9999m 
  690.39322m  516.8432n  699.9999m 
  690.49322m  517.3082n  699.9999m 
  690.59322m  517.7737n  699.9999m 
  690.69322m  518.2396n  699.9999m 
  690.79322m  518.7061n  699.9999m 
  690.89322m  519.1729n  699.9999m 
  690.99322m  519.6403n  699.9999m 
  691.09322m  520.1081n  699.9999m 
  691.19322m  520.5763n  699.9999m 
  691.29322m  521.0451n  699.9999m 
  691.39322m  521.5143n  699.9999m 
  691.49322m  521.9840n  699.9999m 
  691.59322m  522.4541n  699.9999m 
  691.69322m  522.9247n  699.9999m 
  691.79322m  523.3958n  699.9999m 
  691.89322m  523.8674n  699.9999m 
  691.99322m  524.3394n  699.9999m 
  692.09322m  524.8119n  699.9999m 
  692.19322m  525.2849n  699.9999m 
  692.29322m  525.7584n  699.9999m 
  692.39322m  526.2323n  699.9999m 
  692.49322m  526.7067n  699.9999m 
  692.59322m  527.1815n  699.9999m 
  692.69322m  527.6569n  699.9999m 
  692.79322m  528.1327n  699.9999m 
  692.89322m  528.6090n  699.9999m 
  692.99322m  529.0858n  699.9999m 
  693.09322m  529.5630n  699.9999m 
  693.19322m  530.0408n  699.9999m 
  693.29322m  530.5190n  699.9999m 
  693.39322m  530.9977n  699.9999m 
  693.49322m  531.4768n  699.9999m 
  693.59322m  531.9565n  699.9999m 
  693.69322m  532.4366n  699.9999m 
  693.79322m  532.9172n  699.9999m 
  693.89322m  533.3983n  699.9999m 
  693.99322m  533.8799n  699.9999m 
  694.09322m  534.3619n  699.9999m 
  694.19322m  534.8444n  699.9999m 
  694.29322m  535.3275n  699.9999m 
  694.39322m  535.8110n  699.9999m 
  694.49322m  536.2949n  699.9999m 
  694.59322m  536.7794n  699.9999m 
  694.69322m  537.2644n  699.9999m 
  694.79322m  537.7498n  699.9999m 
  694.89322m  538.2357n  699.9999m 
  694.99322m  538.7221n  699.9999m 
  695.09322m  539.2090n  699.9999m 
  695.19322m  539.6964n  699.9999m 
  695.29322m  540.1843n  699.9999m 
  695.39322m  540.6727n  699.9999m 
  695.49322m  541.1615n  699.9999m 
  695.59322m  541.6509n  699.9999m 
  695.69322m  542.1407n  699.9999m 
  695.79322m  542.6310n  699.9999m 
  695.89322m  543.1218n  699.9999m 
  695.99322m  543.6131n  699.9999m 
  696.09322m  544.1049n  699.9999m 
  696.19322m  544.5972n  699.9999m 
  696.29322m  545.0900n  699.9999m 
  696.39322m  545.5833n  699.9999m 
  696.49322m  546.0771n  699.9999m 
  696.59322m  546.5713n  699.9999m 
  696.69322m  547.0661n  699.9999m 
  696.79322m  547.5614n  699.9999m 
  696.89322m  548.0571n  699.9999m 
  696.99322m  548.5534n  699.9999m 
  697.09322m  549.0501n  699.9999m 
  697.19322m  549.5474n  699.9999m 
  697.29322m  550.0451n  699.9999m 
  697.39322m  550.5434n  699.9999m 
  697.49322m  551.0421n  699.9999m 
  697.59322m  551.5414n  699.9999m 
  697.69322m  552.0411n  699.9999m 
  697.79322m  552.5414n  699.9999m 
  697.89322m  553.0421n  699.9999m 
  697.99322m  553.5434n  699.9999m 
  698.09322m  554.0451n  699.9999m 
  698.19322m  554.5474n  699.9999m 
  698.29322m  555.0502n  699.9999m 
  698.39322m  555.5534n  699.9999m 
  698.49322m  556.0572n  699.9999m 
  698.59322m  556.5615n  699.9999m 
  698.69322m  557.0663n  699.9999m 
  698.79322m  557.5716n  699.9999m 
  698.89322m  558.0774n  699.9999m 
  698.99322m  558.5837n  699.9999m 
  699.09322m  559.0905n  699.9999m 
  699.19322m  559.5978n  699.9999m 
  699.29322m  560.1057n  699.9999m 
  699.39322m  560.6140n  699.9999m 
  699.49322m  561.1229n  699.9999m 
  699.59322m  561.6322n  699.9999m 
  699.69322m  562.1421n  699.9999m 
  699.79322m  562.6525n  699.9999m 
  699.89322m  563.1634n  699.9999m 
  699.99322m  563.6748n  699.9999m 
  700.09322m  564.1867n  699.9999m 
  700.19322m  564.6992n  699.9999m 
  700.29322m  565.2121n  699.9999m 
  700.39322m  565.7256n  699.9999m 
  700.49322m  566.2396n  699.9999m 
  700.59322m  566.7541n  699.9999m 
  700.69322m  567.2691n  699.9999m 
  700.79322m  567.7847n  699.9999m 
  700.89322m  568.3007n  699.9999m 
  700.99322m  568.8173n  699.9999m 
  701.09322m  569.3344n  699.9999m 
  701.19322m  569.8520n  699.9999m 
  701.29322m  570.3702n  699.9999m 
  701.39322m  570.8888n  699.9999m 
  701.49322m  571.4080n  699.9999m 
  701.59322m  571.9277n  699.9999m 
  701.69322m  572.4479n  699.9999m 
  701.79322m  572.9687n  699.9999m 
  701.89322m  573.4899n  699.9999m 
  701.99322m  574.0117n  699.9999m 
  702.09322m  574.5340n  699.9999m 
  702.19322m  575.0569n  699.9999m 
  702.29322m  575.5803n  699.9999m 
  702.39322m  576.1042n  699.9999m 
  702.49322m  576.6286n  699.9999m 
  702.59322m  577.1535n  699.9999m 
  702.69322m  577.6790n  699.9999m 
  702.79322m  578.2050n  699.9999m 
  702.89322m  578.7316n  699.9999m 
  702.99322m  579.2586n  699.9999m 
  703.09322m  579.7862n  699.9999m 
  703.19322m  580.3143n  699.9999m 
  703.29322m  580.8430n  699.9999m 
  703.39322m  581.3722n  699.9999m 
  703.49322m  581.9019n  699.9999m 
  703.59322m  582.4322n  699.9999m 
  703.69322m  582.9630n  699.9999m 
  703.79322m  583.4943n  699.9999m 
  703.89322m  584.0262n  699.9999m 
  703.99322m  584.5585n  699.9999m 
  704.09322m  585.0915n  699.9999m 
  704.19322m  585.6249n  699.9999m 
  704.29322m  586.1590n  699.9999m 
  704.39322m  586.6935n  699.9999m 
  704.49322m  587.2286n  699.9999m 
  704.59322m  587.7642n  699.9999m 
  704.69322m  588.3004n  699.9999m 
  704.79322m  588.8371n  699.9999m 
  704.89322m  589.3743n  699.9999m 
  704.99322m  589.9121n  699.9999m 
  705.09322m  590.4504n  699.9999m 
  705.19322m  590.9893n  699.9999m 
  705.29322m  591.5287n  699.9999m 
  705.39322m  592.0686n  699.9999m 
  705.49322m  592.6091n  699.9999m 
  705.59322m  593.1502n  699.9999m 
  705.69322m  593.6917n  699.9999m 
  705.79322m  594.2339n  699.9999m 
  705.89322m  594.7766n  699.9999m 
  705.99322m  595.3198n  699.9999m 
  706.09322m  595.8635n  699.9999m 
  706.19322m  596.4079n  699.9999m 
  706.29322m  596.9527n  699.9999m 
  706.39322m  597.4982n  699.9999m 
  706.49322m  598.0441n  699.9999m 
  706.59322m  598.5906n  699.9999m 
  706.69322m  599.1377n  699.9999m 
  706.79322m  599.6853n  699.9999m 
  706.89322m  600.2335n  699.9999m 
  706.99322m  600.7822n  699.9999m 
  707.09322m  601.3315n  699.9999m 
y

          ***** job concluded
1****** HSPICE -- Q-2020.03-SP2-2 linux64 (Nov  1 2020) ******                  
 ******  
 .title ex1_1

 ****** job statistics summary tnom=  25.000 temp=  25.000 ******
  
 ******  Machine Information  ******
 CPU:
 model name	: AMD EPYC 7713 64-Core Processor
 cpu MHz	: 2000.000
  
 OS:
 Linux version 3.10.0-1160.88.1.el7.x86_64 (mockbuild@kbuilder.bsys.centos.org) (gcc version 4.8.5 20150623 (Red Hat 4.8.5-44) (GCC) ) #1 SMP Tue Mar 7 15:41:52 UTC 2023


  ******  HSPICE Threads Information  ******

  Command Line Threads Count :     1
  Available CPU Count        :   256
  Actual Threads Count       :     1


  ******  Circuit Statistics  ******
  # nodes       =      13 # elements   =      15
  # resistors   =       0 # capacitors =       2 # inductors   =       0
  # mutual_inds =       0 # vccs       =       0 # vcvs        =       4
  # cccs        =       0 # ccvs       =       0 # volt_srcs   =       3
  # curr_srcs   =       0 # diodes     =       0 # bjts        =       0
  # jfets       =       0 # mosfets    =       6 # U elements  =       0
  # T elements  =       0 # W elements =       0 # B elements  =       0
  # S elements  =       0 # P elements =       0 # va device   =       0
  # vector_srcs =       0 # N elements =       0


  ******  Runtime Statistics (seconds)  ******

  analysis           time    # points   tot. iter  conv.iter
  op point           0.00           1           0
  dc sweep           1.03       14143       43024
  readin             0.01
  errchk             0.00
  setup              0.00
  output             0.00


           peak memory used        400.88 megabytes
           total cpu time            1.10 seconds
           total elapsed time        1.59 seconds
           job started at     20:44:44 03/18/2025
           job ended   at     20:44:45 03/18/2025
           job total runtime         1.59 seconds


 lic: Release hspice token(s) 
 lic: total license checkout elapse time:        0.49(s)
