 ****** HSPICE -- Q-2020.03-SP2-2 linux64 (Nov  1 2020) ******                  
  Copyright (c) 1986 - 2025 by Synopsys, Inc. All Rights Reserved.              
  This software and the associated documentation are proprietary
  to Synopsys, Inc. This software may only be used in accordance
  with the terms and conditions of a written license agreement with
  Synopsys, Inc. All other use, reproduction, or distribution of
  this software is strictly prohibited.
  Input File: ex1_1.sp                                                          
  Command line options: /RAID2/cad/synopsys/hspice/2020.03-sp2-2/hspice/linux64/hspice -i ex1_1.sp -o ex1_1.lis
  Start time: Tue Mar 18 22:57:37 2025
 lic:  
 lic: FLEXlm: SDK_12.6 
 lic: USER:   es25MCS042           HOSTNAME: ee28 
 lic: HOSTID: "d85ed3efc19a"       PID:      51913 
 lic: Using FLEXlm license file: 
 lic: 26585@lshc 
 lic: Checkout 1 hspice 
 lic: License/Maintenance for hspice will expire on 14-may-2025/2024.09 
 lic: 209(in_use)/1100(total) FLOATING license(s) on SERVER 26585@lshc 
 lic:   
  
      
 *****************************************************************
 ******  option summary
 ******
 runlvl  = 3         bypass  = 2.0000    
 ******
 .title ex1_1

 ****** dc transfer curves tnom=  25.000 temp=  25.000 ******
x

 volt         voltage    voltage   
             q          qb         
 -494.97475m   31.6139n  699.9999m 
 -494.87475m   31.7571n  699.9999m 
 -494.77475m   31.9010n  699.9999m 
 -494.67475m   32.0458n  699.9999m 
 -494.57475m   32.1915n  699.9999m 
 -494.47475m   32.3379n  699.9999m 
 -494.37475m   32.4852n  699.9999m 
 -494.27475m   32.6334n  699.9999m 
 -494.17475m   32.7824n  699.9999m 
 -494.07475m   32.9323n  699.9999m 
 -493.97475m   33.0830n  699.9999m 
 -493.87475m   33.2346n  699.9999m 
 -493.77475m   33.3871n  699.9999m 
 -493.67475m   33.5404n  699.9999m 
 -493.57475m   33.6947n  699.9999m 
 -493.47475m   33.8498n  699.9999m 
 -493.37475m   34.0058n  699.9999m 
 -493.27475m   34.1627n  699.9999m 
 -493.17475m   34.3205n  699.9999m 
 -493.07475m   34.4792n  699.9999m 
 -492.97475m   34.6389n  699.9999m 
 -492.87475m   34.7994n  699.9999m 
 -492.77475m   34.9609n  699.9999m 
 -492.67475m   35.1233n  699.9999m 
 -492.57475m   35.2867n  699.9999m 
 -492.47475m   35.4510n  699.9999m 
 -492.37475m   35.6162n  699.9999m 
 -492.27475m   35.7824n  699.9999m 
 -492.17475m   35.9496n  699.9999m 
 -492.07475m   36.1177n  699.9999m 
 -491.97475m   36.2868n  699.9999m 
 -491.87475m   36.4568n  699.9999m 
 -491.77475m   36.6278n  699.9999m 
 -491.67475m   36.7999n  699.9999m 
 -491.57475m   36.9729n  699.9999m 
 -491.47475m   37.1469n  699.9999m 
 -491.37475m   37.3219n  699.9999m 
 -491.27475m   37.4979n  699.9999m 
 -491.17475m   37.6749n  699.9999m 
 -491.07475m   37.8530n  699.9999m 
 -490.97475m   38.0320n  699.9999m 
 -490.87475m   38.2121n  699.9999m 
 -490.77475m   38.3933n  699.9999m 
 -490.67475m   38.5755n  699.9999m 
 -490.57475m   38.7587n  699.9999m 
 -490.47475m   38.9430n  699.9999m 
 -490.37475m   39.1284n  699.9999m 
 -490.27475m   39.3148n  699.9999m 
 -490.17475m   39.5023n  699.9999m 
 -490.07475m   39.6908n  699.9999m 
 -489.97475m   39.8805n  699.9999m 
 -489.87475m   40.0713n  699.9999m 
 -489.77475m   40.2631n  699.9999m 
 -489.67475m   40.4561n  699.9999m 
 -489.57475m   40.6501n  699.9999m 
 -489.47475m   40.8453n  699.9999m 
 -489.37475m   41.0416n  699.9999m 
 -489.27475m   41.2391n  699.9999m 
 -489.17475m   41.4377n  699.9999m 
 -489.07475m   41.6374n  699.9999m 
 -488.97475m   41.8383n  699.9999m 
 -488.87475m   42.0403n  699.9999m 
 -488.77475m   42.2435n  699.9999m 
 -488.67475m   42.4479n  699.9999m 
 -488.57475m   42.6534n  699.9999m 
 -488.47475m   42.8601n  699.9999m 
 -488.37475m   43.0681n  699.9999m 
 -488.27475m   43.2772n  699.9999m 
 -488.17475m   43.4875n  699.9999m 
 -488.07475m   43.6990n  699.9999m 
 -487.97475m   43.9118n  699.9999m 
 -487.87475m   44.1258n  699.9999m 
 -487.77475m   44.3410n  699.9999m 
 -487.67475m   44.5574n  699.9999m 
 -487.57475m   44.7751n  699.9999m 
 -487.47475m   44.9941n  699.9999m 
 -487.37475m   45.2143n  699.9999m 
 -487.27475m   45.4358n  699.9999m 
 -487.17475m   45.6586n  699.9999m 
 -487.07475m   45.8826n  699.9999m 
 -486.97475m   46.1080n  699.9999m 
 -486.87475m   46.3346n  699.9999m 
 -486.77475m   46.5625n  699.9999m 
 -486.67475m   46.7918n  699.9999m 
 -486.57475m   47.0224n  699.9999m 
 -486.47475m   47.2543n  699.9999m 
 -486.37475m   47.4875n  699.9999m 
 -486.27475m   47.7221n  699.9999m 
 -486.17475m   47.9581n  699.9999m 
 -486.07475m   48.1954n  699.9999m 
 -485.97475m   48.4340n  699.9999m 
 -485.87475m   48.6741n  699.9999m 
 -485.77475m   48.9155n  699.9999m 
 -485.67475m   49.1583n  699.9999m 
 -485.57475m   49.4026n  699.9999m 
 -485.47475m   49.6482n  699.9999m 
 -485.37475m   49.8952n  699.9999m 
 -485.27475m   50.1437n  699.9999m 
 -485.17475m   50.3936n  699.9999m 
 -485.07475m   50.6450n  699.9999m 
 -484.97475m   50.8978n  699.9999m 
 -484.87475m   51.1520n  699.9999m 
 -484.77475m   51.4077n  699.9999m 
 -484.67475m   51.6649n  699.9999m 
 -484.57475m   51.9236n  699.9999m 
 -484.47475m   52.1838n  699.9999m 
 -484.37475m   52.4454n  699.9999m 
 -484.27475m   52.7086n  699.9999m 
 -484.17475m   52.9733n  699.9999m 
 -484.07475m   53.2395n  699.9999m 
 -483.97475m   53.5073n  699.9999m 
 -483.87475m   53.7766n  699.9999m 
 -483.77475m   54.0474n  699.9999m 
 -483.67475m   54.3198n  699.9999m 
 -483.57475m   54.5938n  699.9999m 
 -483.47475m   54.8694n  699.9999m 
 -483.37475m   55.1465n  699.9999m 
 -483.27475m   55.4253n  699.9999m 
 -483.17475m   55.7056n  699.9999m 
 -483.07475m   55.9876n  699.9999m 
 -482.97475m   56.2712n  699.9999m 
 -482.87475m   56.5565n  699.9999m 
 -482.77475m   56.8434n  699.9999m 
 -482.67475m   57.1319n  699.9999m 
 -482.57475m   57.4221n  699.9999m 
 -482.47475m   57.7140n  699.9999m 
 -482.37475m   58.0076n  699.9999m 
 -482.27475m   58.3028n  699.9999m 
 -482.17475m   58.5998n  699.9999m 
 -482.07475m   58.8984n  699.9999m 
 -481.97475m   59.1988n  699.9999m 
 -481.87475m   59.5010n  699.9999m 
 -481.77475m   59.8049n  699.9999m 
 -481.67475m   60.1105n  699.9999m 
 -481.57475m   60.4179n  699.9999m 
 -481.47475m   60.7270n  699.9999m 
 -481.37475m   61.0380n  699.9999m 
 -481.27475m   61.3507n  699.9999m 
 -481.17475m   61.6653n  699.9999m 
 -481.07475m   61.9817n  699.9999m 
 -480.97475m   62.2999n  699.9999m 
 -480.87475m   62.6199n  699.9999m 
 -480.77475m   62.9418n  699.9999m 
 -480.67475m   63.2655n  699.9999m 
 -480.57475m   63.5911n  699.9999m 
 -480.47475m   63.9186n  699.9999m 
 -480.37475m   64.2479n  699.9999m 
 -480.27475m   64.5792n  699.9999m 
 -480.17475m   64.9124n  699.9999m 
 -480.07475m   65.2475n  699.9999m 
 -479.97475m   65.5846n  699.9999m 
 -479.87475m   65.9235n  699.9999m 
 -479.77475m   66.2645n  699.9999m 
 -479.67475m   66.6074n  699.9999m 
 -479.57475m   66.9523n  699.9999m 
 -479.47475m   67.2992n  699.9999m 
 -479.37475m   67.6481n  699.9999m 
 -479.27475m   67.9990n  699.9999m 
 -479.17475m   68.3519n  699.9999m 
 -479.07475m   68.7069n  699.9999m 
 -478.97475m   69.0639n  699.9999m 
 -478.87475m   69.4230n  699.9999m 
 -478.77475m   69.7841n  699.9999m 
 -478.67475m   70.1474n  699.9999m 
 -478.57475m   70.5127n  699.9999m 
 -478.47475m   70.8802n  699.9999m 
 -478.37475m   71.2498n  699.9999m 
 -478.27475m   71.6215n  699.9999m 
 -478.17475m   71.9953n  699.9999m 
 -478.07475m   72.3713n  699.9999m 
 -477.97475m   72.7495n  699.9999m 
 -477.87475m   73.1299n  699.9999m 
 -477.77475m   73.5124n  699.9999m 
 -477.67475m   73.8972n  699.9999m 
 -477.57475m   74.2842n  699.9999m 
 -477.47475m   74.6735n  699.9999m 
 -477.37475m   75.0650n  699.9999m 
 -477.27475m   75.4587n  699.9999m 
 -477.17475m   75.8547n  699.9999m 
 -477.07475m   76.2530n  699.9999m 
 -476.97475m   76.6537n  699.9999m 
 -476.87475m   77.0566n  699.9999m 
 -476.77475m   77.4618n  699.9999m 
 -476.67475m   77.8694n  699.9999m 
 -476.57475m   78.2794n  699.9999m 
 -476.47475m   78.6917n  699.9999m 
 -476.37475m   79.1064n  699.9999m 
 -476.27475m   79.5235n  699.9999m 
 -476.17475m   79.9430n  699.9999m 
 -476.07475m   80.3650n  699.9999m 
 -475.97475m   80.7894n  699.9999m 
 -475.87475m   81.2162n  699.9999m 
 -475.77475m   81.6455n  699.9999m 
 -475.67475m   82.0773n  699.9999m 
 -475.57475m   82.5116n  699.9999m 
 -475.47475m   82.9484n  699.9999m 
 -475.37475m   83.3877n  699.9999m 
 -475.27475m   83.8295n  699.9999m 
 -475.17475m   84.2739n  699.9999m 
 -475.07475m   84.7209n  699.9999m 
 -474.97475m   85.1705n  699.9999m 
 -474.87475m   85.6227n  699.9999m 
 -474.77475m   86.0774n  699.9999m 
 -474.67475m   86.5349n  699.9999m 
 -474.57475m   86.9949n  699.9999m 
 -474.47475m   87.4576n  699.9999m 
 -474.37475m   87.9230n  699.9999m 
 -474.27475m   88.3911n  699.9999m 
 -474.17475m   88.8619n  699.9999m 
 -474.07475m   89.3354n  699.9999m 
 -473.97475m   89.8117n  699.9999m 
 -473.87475m   90.2907n  699.9999m 
 -473.77475m   90.7725n  699.9999m 
 -473.67475m   91.2570n  699.9999m 
 -473.57475m   91.7444n  699.9999m 
 -473.47475m   92.2346n  699.9999m 
 -473.37475m   92.7276n  699.9999m 
 -473.27475m   93.2235n  699.9999m 
 -473.17475m   93.7223n  699.9999m 
 -473.07475m   94.2239n  699.9999m 
 -472.97475m   94.7285n  699.9999m 
 -472.87475m   95.2359n  699.9999m 
 -472.77475m   95.7463n  699.9999m 
 -472.67475m   96.2597n  699.9999m 
 -472.57475m   96.7760n  699.9999m 
 -472.47475m   97.2953n  699.9999m 
 -472.37475m   97.8176n  699.9999m 
 -472.27475m   98.3430n  699.9999m 
 -472.17475m   98.8714n  699.9999m 
 -472.07475m   99.4028n  699.9999m 
 -471.97475m   99.9373n  699.9999m 
 -471.87475m  100.4749n  699.9999m 
 -471.77475m  101.0157n  699.9999m 
 -471.67475m  101.5595n  699.9999m 
 -471.57475m  102.1065n  699.9999m 
 -471.47475m  102.6567n  699.9999m 
 -471.37475m  103.2101n  699.9999m 
 -471.27475m  103.7666n  699.9999m 
 -471.17475m  104.3264n  699.9999m 
 -471.07475m  104.8894n  699.9999m 
 -470.97475m  105.4557n  699.9999m 
 -470.87475m  106.0253n  699.9999m 
 -470.77475m  106.5982n  699.9999m 
 -470.67475m  107.1744n  699.9999m 
 -470.57475m  107.7539n  699.9999m 
 -470.47475m  108.3368n  699.9999m 
 -470.37475m  108.9230n  699.9999m 
 -470.27475m  109.5127n  699.9999m 
 -470.17475m  110.1058n  699.9999m 
 -470.07475m  110.7023n  699.9999m 
 -469.97475m  111.3022n  699.9999m 
 -469.87475m  111.9057n  699.9999m 
 -469.77475m  112.5126n  699.9999m 
 -469.67475m  113.1231n  699.9999m 
 -469.57475m  113.7371n  699.9999m 
 -469.47475m  114.3546n  699.9999m 
 -469.37475m  114.9757n  699.9999m 
 -469.27475m  115.6005n  699.9999m 
 -469.17475m  116.2288n  699.9999m 
 -469.07475m  116.8608n  699.9999m 
 -468.97475m  117.4965n  699.9999m 
 -468.87475m  118.1358n  699.9999m 
 -468.77475m  118.7788n  699.9999m 
 -468.67475m  119.4256n  699.9999m 
 -468.57475m  120.0761n  699.9999m 
 -468.47475m  120.7304n  699.9999m 
 -468.37475m  121.3885n  699.9999m 
 -468.27475m  122.0504n  699.9999m 
 -468.17475m  122.7162n  699.9999m 
 -468.07475m  123.3858n  699.9999m 
 -467.97475m  124.0593n  699.9999m 
 -467.87475m  124.7367n  699.9999m 
 -467.77475m  125.4180n  699.9999m 
 -467.67475m  126.1032n  699.9999m 
 -467.57475m  126.7925n  699.9999m 
 -467.47475m  127.4857n  699.9999m 
 -467.37475m  128.1830n  699.9999m 
 -467.27475m  128.8843n  699.9999m 
 -467.17475m  129.5897n  699.9999m 
 -467.07475m  130.2991n  699.9999m 
 -466.97475m  131.0127n  699.9999m 
 -466.87475m  131.7305n  699.9999m 
 -466.77475m  132.4523n  699.9999m 
 -466.67475m  133.1784n  699.9999m 
 -466.57475m  133.9087n  699.9999m 
 -466.47475m  134.6432n  699.9999m 
 -466.37475m  135.3820n  699.9999m 
 -466.27475m  136.1251n  699.9999m 
 -466.17475m  136.8725n  699.9999m 
 -466.07475m  137.6242n  699.9999m 
 -465.97475m  138.3803n  699.9999m 
 -465.87475m  139.1408n  699.9999m 
 -465.77475m  139.9057n  699.9999m 
 -465.67475m  140.6750n  699.9999m 
 -465.57475m  141.4488n  699.9999m 
 -465.47475m  142.2271n  699.9999m 
 -465.37475m  143.0099n  699.9999m 
 -465.27475m  143.7973n  699.9999m 
 -465.17475m  144.5892n  699.9999m 
 -465.07475m  145.3857n  699.9999m 
 -464.97475m  146.1869n  699.9999m 
 -464.87475m  146.9927n  699.9999m 
 -464.77475m  147.8032n  699.9999m 
 -464.67475m  148.6183n  699.9999m 
 -464.57475m  149.4383n  699.9999m 
 -464.47475m  150.2629n  699.9999m 
 -464.37475m  151.0924n  699.9999m 
 -464.27475m  151.9267n  699.9999m 
 -464.17475m  152.7658n  699.9999m 
 -464.07475m  153.6099n  699.9999m 
 -463.97475m  154.4588n  699.9999m 
 -463.87475m  155.3126n  699.9999m 
 -463.77475m  156.1714n  699.9999m 
 -463.67475m  157.0352n  699.9999m 
 -463.57475m  157.9040n  699.9999m 
 -463.47475m  158.7779n  699.9999m 
 -463.37475m  159.6568n  699.9999m 
 -463.27475m  160.5409n  699.9999m 
 -463.17475m  161.4301n  699.9999m 
 -463.07475m  162.3244n  699.9999m 
 -462.97475m  163.2240n  699.9999m 
 -462.87475m  164.1288n  699.9999m 
 -462.77475m  165.0388n  699.9999m 
 -462.67475m  165.9541n  699.9999m 
 -462.57475m  166.8748n  699.9999m 
 -462.47475m  167.8008n  699.9999m 
 -462.37475m  168.7322n  699.9999m 
 -462.27475m  169.6690n  699.9999m 
 -462.17475m  170.6112n  699.9999m 
 -462.07475m  171.5590n  699.9999m 
 -461.97475m  172.5122n  699.9999m 
 -461.87475m  173.4710n  699.9999m 
 -461.77475m  174.4353n  699.9999m 
 -461.67475m  175.4053n  699.9999m 
 -461.57475m  176.3809n  699.9999m 
 -461.47475m  177.3622n  699.9999m 
 -461.37475m  178.3492n  699.9999m 
 -461.27475m  179.3419n  699.9999m 
 -461.17475m  180.3404n  699.9999m 
 -461.07475m  181.3447n  699.9999m 
 -460.97475m  182.3548n  699.9999m 
 -460.87475m  183.3709n  699.9999m 
 -460.77475m  184.3928n  699.9999m 
 -460.67475m  185.4207n  699.9999m 
 -460.57475m  186.4546n  699.9999m 
 -460.47475m  187.4944n  699.9999m 
 -460.37475m  188.5404n  699.9999m 
 -460.27475m  189.5924n  699.9998m 
 -460.17475m  190.6505n  699.9998m 
 -460.07475m  191.7148n  699.9998m 
 -459.97475m  192.7853n  699.9998m 
 -459.87475m  193.8621n  699.9998m 
 -459.77475m  194.9451n  699.9998m 
 -459.67475m  196.0344n  699.9998m 
 -459.57475m  197.1300n  699.9998m 
 -459.47475m  198.2320n  699.9998m 
 -459.37475m  199.3405n  699.9998m 
 -459.27475m  200.4553n  699.9998m 
 -459.17475m  201.5767n  699.9998m 
 -459.07475m  202.7046n  699.9998m 
 -458.97475m  203.8391n  699.9998m 
 -458.87475m  204.9802n  699.9998m 
 -458.77475m  206.1279n  699.9998m 
 -458.67475m  207.2823n  699.9998m 
 -458.57475m  208.4435n  699.9998m 
 -458.47475m  209.6114n  699.9998m 
 -458.37475m  210.7861n  699.9998m 
 -458.27475m  211.9676n  699.9998m 
 -458.17475m  213.1561n  699.9998m 
 -458.07475m  214.3514n  699.9998m 
 -457.97475m  215.5537n  699.9998m 
 -457.87475m  216.7630n  699.9998m 
 -457.77475m  217.9794n  699.9998m 
 -457.67475m  219.2029n  699.9998m 
 -457.57475m  220.4335n  699.9998m 
 -457.47475m  221.6712n  699.9998m 
 -457.37475m  222.9162n  699.9998m 
 -457.27475m  224.1684n  699.9998m 
 -457.17475m  225.4279n  699.9998m 
 -457.07475m  226.6948n  699.9998m 
 -456.97475m  227.9690n  699.9998m 
 -456.87475m  229.2507n  699.9998m 
 -456.77475m  230.5399n  699.9998m 
 -456.67475m  231.8365n  699.9998m 
 -456.57475m  233.1408n  699.9998m 
 -456.47475m  234.4526n  699.9998m 
 -456.37475m  235.7721n  699.9998m 
 -456.27475m  237.0992n  699.9998m 
 -456.17475m  238.4342n  699.9998m 
 -456.07475m  239.7769n  699.9998m 
 -455.97475m  241.1274n  699.9998m 
 -455.87475m  242.4858n  699.9998m 
 -455.77475m  243.8521n  699.9998m 
 -455.67475m  245.2264n  699.9998m 
 -455.57475m  246.6087n  699.9998m 
 -455.47475m  247.9991n  699.9998m 
 -455.37475m  249.3976n  699.9998m 
 -455.27475m  250.8042n  699.9998m 
 -455.17475m  252.2191n  699.9998m 
 -455.07475m  253.6422n  699.9998m 
 -454.97475m  255.0736n  699.9998m 
 -454.87475m  256.5134n  699.9998m 
 -454.77475m  257.9615n  699.9998m 
 -454.67475m  259.4182n  699.9998m 
 -454.57475m  260.8833n  699.9998m 
 -454.47475m  262.3570n  699.9998m 
 -454.37475m  263.8392n  699.9998m 
 -454.27475m  265.3302n  699.9998m 
 -454.17475m  266.8298n  699.9998m 
 -454.07475m  268.3382n  699.9998m 
 -453.97475m  269.8554n  699.9998m 
 -453.87475m  271.3814n  699.9998m 
 -453.77475m  272.9164n  699.9998m 
 -453.67475m  274.4603n  699.9998m 
 -453.57475m  276.0132n  699.9998m 
 -453.47475m  277.5752n  699.9998m 
 -453.37475m  279.1464n  699.9998m 
 -453.27475m  280.7267n  699.9998m 
 -453.17475m  282.3162n  699.9998m 
 -453.07475m  283.9150n  699.9998m 
 -452.97475m  285.5232n  699.9998m 
 -452.87475m  287.1407n  699.9998m 
 -452.77475m  288.7677n  699.9998m 
 -452.67475m  290.4042n  699.9998m 
 -452.57475m  292.0503n  699.9998m 
 -452.47475m  293.7060n  699.9998m 
 -452.37475m  295.3714n  699.9998m 
 -452.27475m  297.0464n  699.9998m 
 -452.17475m  298.7313n  699.9998m 
 -452.07475m  300.4261n  699.9998m 
 -451.97475m  302.1307n  699.9998m 
 -451.87475m  303.8453n  699.9998m 
 -451.77475m  305.5699n  699.9998m 
 -451.67475m  307.3046n  699.9998m 
 -451.57475m  309.0494n  699.9998m 
 -451.47475m  310.8045n  699.9998m 
 -451.37475m  312.5698n  699.9998m 
 -451.27475m  314.3454n  699.9998m 
 -451.17475m  316.1314n  699.9998m 
 -451.07475m  317.9278n  699.9998m 
 -450.97475m  319.7348n  699.9998m 
 -450.87475m  321.5523n  699.9998m 
 -450.77475m  323.3805n  699.9998m 
 -450.67475m  325.2193n  699.9998m 
 -450.57475m  327.0689n  699.9998m 
 -450.47475m  328.9293n  699.9998m 
 -450.37475m  330.8006n  699.9998m 
 -450.27475m  332.6828n  699.9998m 
 -450.17475m  334.5761n  699.9998m 
 -450.07475m  336.4804n  699.9998m 
 -449.97475m  338.3959n  699.9998m 
 -449.87475m  340.3226n  699.9998m 
 -449.77475m  342.2605n  699.9998m 
 -449.67475m  344.2098n  699.9998m 
 -449.57475m  346.1705n  699.9998m 
 -449.47475m  348.1427n  699.9998m 
 -449.37475m  350.1264n  699.9998m 
 -449.27475m  352.1218n  699.9998m 
 -449.17475m  354.1288n  699.9998m 
 -449.07475m  356.1475n  699.9998m 
 -448.97475m  358.1781n  699.9998m 
 -448.87475m  360.2206n  699.9998m 
 -448.77475m  362.2750n  699.9998m 
 -448.67475m  364.3415n  699.9998m 
 -448.57475m  366.4200n  699.9998m 
 -448.47475m  368.5107n  699.9998m 
 -448.37475m  370.6137n  699.9998m 
 -448.27475m  372.7290n  699.9998m 
 -448.17475m  374.8567n  699.9998m 
 -448.07475m  376.9968n  699.9998m 
 -447.97475m  379.1495n  699.9998m 
 -447.87475m  381.3148n  699.9998m 
 -447.77475m  383.4927n  699.9998m 
 -447.67475m  385.6834n  699.9998m 
 -447.57475m  387.8870n  699.9998m 
 -447.47475m  390.1035n  699.9998m 
 -447.37475m  392.3329n  699.9998m 
 -447.27475m  394.5755n  699.9998m 
 -447.17475m  396.8311n  699.9998m 
 -447.07475m  399.1000n  699.9998m 
 -446.97475m  401.3822n  699.9998m 
 -446.87475m  403.6777n  699.9998m 
 -446.77475m  405.9868n  699.9998m 
 -446.67475m  408.3093n  699.9998m 
 -446.57475m  410.6455n  699.9998m 
 -446.47475m  412.9953n  699.9998m 
 -446.37475m  415.3590n  699.9998m 
 -446.27475m  417.7365n  699.9998m 
 -446.17475m  420.1279n  699.9998m 
 -446.07475m  422.5334n  699.9998m 
 -445.97475m  424.9529n  699.9998m 
 -445.87475m  427.3867n  699.9998m 
 -445.77475m  429.8347n  699.9998m 
 -445.67475m  432.2971n  699.9998m 
 -445.57475m  434.7739n  699.9998m 
 -445.47475m  437.2653n  699.9998m 
 -445.37475m  439.7712n  699.9998m 
 -445.27475m  442.2919n  699.9998m 
 -445.17475m  444.8274n  699.9998m 
 -445.07475m  447.3777n  699.9998m 
 -444.97475m  449.9430n  699.9998m 
 -444.87475m  452.5234n  699.9998m 
 -444.77475m  455.1189n  699.9998m 
 -444.67475m  457.7296n  699.9998m 
 -444.57475m  460.3557n  699.9998m 
 -444.47475m  462.9971n  699.9998m 
 -444.37475m  465.6541n  699.9998m 
 -444.27475m  468.3267n  699.9998m 
 -444.17475m  471.0149n  699.9998m 
 -444.07475m  473.7190n  699.9998m 
 -443.97475m  476.4389n  699.9998m 
 -443.87475m  479.1748n  699.9998m 
 -443.77475m  481.9267n  699.9998m 
 -443.67475m  484.6949n  699.9998m 
 -443.57475m  487.4792n  699.9998m 
 -443.47475m  490.2799n  699.9998m 
 -443.37475m  493.0971n  699.9998m 
 -443.27475m  495.9308n  699.9998m 
 -443.17475m  498.7812n  699.9998m 
 -443.07475m  501.6483n  699.9998m 
 -442.97475m  504.5322n  699.9998m 
 -442.87475m  507.4331n  699.9998m 
 -442.77475m  510.3511n  699.9998m 
 -442.67475m  513.2861n  699.9998m 
 -442.57475m  516.2385n  699.9998m 
 -442.47475m  519.2081n  699.9998m 
 -442.37475m  522.1953n  699.9998m 
 -442.27475m  525.1999n  699.9998m 
 -442.17475m  528.2223n  699.9998m 
 -442.07475m  531.2624n  699.9998m 
 -441.97475m  534.3204n  699.9998m 
 -441.87475m  537.3963n  699.9998m 
 -441.77475m  540.4904n  699.9998m 
 -441.67475m  543.6026n  699.9998m 
 -441.57475m  546.7331n  699.9998m 
 -441.47475m  549.8821n  699.9998m 
 -441.37475m  553.0495n  699.9998m 
 -441.27475m  556.2356n  699.9998m 
 -441.17475m  559.4404n  699.9998m 
 -441.07475m  562.6641n  699.9998m 
 -440.97475m  565.9067n  699.9998m 
 -440.87475m  569.1684n  699.9998m 
 -440.77475m  572.4493n  699.9998m 
 -440.67475m  575.7495n  699.9998m 
 -440.57475m  579.0691n  699.9998m 
 -440.47475m  582.4082n  699.9998m 
 -440.37475m  585.7670n  699.9998m 
 -440.27475m  589.1455n  699.9998m 
 -440.17475m  592.5440n  699.9998m 
 -440.07475m  595.9624n  699.9998m 
 -439.97475m  599.4009n  699.9998m 
 -439.87475m  602.8597n  699.9998m 
 -439.77475m  606.3388n  699.9998m 
 -439.67475m  609.8385n  699.9997m 
 -439.57475m  613.3587n  699.9997m 
 -439.47475m  616.8996n  699.9997m 
 -439.37475m  620.4614n  699.9997m 
 -439.27475m  624.0442n  699.9997m 
 -439.17475m  627.6481n  699.9997m 
 -439.07475m  631.2732n  699.9997m 
 -438.97475m  634.9196n  699.9997m 
 -438.87475m  638.5875n  699.9997m 
 -438.77475m  642.2770n  699.9997m 
 -438.67475m  645.9883n  699.9997m 
 -438.57475m  649.7214n  699.9997m 
 -438.47475m  653.4765n  699.9997m 
 -438.37475m  657.2537n  699.9997m 
 -438.27475m  661.0532n  699.9997m 
 -438.17475m  664.8750n  699.9997m 
 -438.07475m  668.7194n  699.9997m 
 -437.97475m  672.5864n  699.9997m 
 -437.87475m  676.4763n  699.9997m 
 -437.77475m  680.3890n  699.9997m 
 -437.67475m  684.3248n  699.9997m 
 -437.57475m  688.2838n  699.9997m 
 -437.47475m  692.2662n  699.9997m 
 -437.37475m  696.2720n  699.9997m 
 -437.27475m  700.3014n  699.9997m 
 -437.17475m  704.3546n  699.9997m 
 -437.07475m  708.4317n  699.9997m 
 -436.97475m  712.5328n  699.9997m 
 -436.87475m  716.6582n  699.9997m 
 -436.77475m  720.8078n  699.9997m 
 -436.67475m  724.9819n  699.9997m 
 -436.57475m  729.1806n  699.9997m 
 -436.47475m  733.4041n  699.9997m 
 -436.37475m  737.6526n  699.9997m 
 -436.27475m  741.9260n  699.9997m 
 -436.17475m  746.2247n  699.9997m 
 -436.07475m  750.5488n  699.9997m 
 -435.97475m  754.8983n  699.9997m 
 -435.87475m  759.2736n  699.9997m 
 -435.77475m  763.6746n  699.9997m 
 -435.67475m  768.1016n  699.9997m 
 -435.57475m  772.5548n  699.9997m 
 -435.47475m  777.0342n  699.9997m 
 -435.37475m  781.5401n  699.9997m 
 -435.27475m  786.0725n  699.9997m 
 -435.17475m  790.6318n  699.9997m 
 -435.07475m  795.2179n  699.9997m 
 -434.97475m  799.8311n  699.9997m 
 -434.87475m  804.4716n  699.9997m 
 -434.77475m  809.1394n  699.9997m 
 -434.67475m  813.8349n  699.9997m 
 -434.57475m  818.5580n  699.9997m 
 -434.47475m  823.3090n  699.9997m 
 -434.37475m  828.0882n  699.9997m 
 -434.27475m  832.8955n  699.9997m 
 -434.17475m  837.7312n  699.9997m 
 -434.07475m  842.5955n  699.9997m 
 -433.97475m  847.4886n  699.9997m 
 -433.87475m  852.4105n  699.9997m 
 -433.77475m  857.3615n  699.9997m 
 -433.67475m  862.3418n  699.9997m 
 -433.57475m  867.3515n  699.9997m 
 -433.47475m  872.3909n  699.9997m 
 -433.37475m  877.4600n  699.9997m 
 -433.27475m  882.5590n  699.9997m 
 -433.17475m  887.6883n  699.9997m 
 -433.07475m  892.8478n  699.9997m 
 -432.97475m  898.0378n  699.9997m 
 -432.87475m  903.2585n  699.9997m 
 -432.77475m  908.5101n  699.9997m 
 -432.67475m  913.7928n  699.9997m 
 -432.57475m  919.1066n  699.9997m 
 -432.47475m  924.4519n  699.9997m 
 -432.37475m  929.8289n  699.9997m 
 -432.27475m  935.2376n  699.9997m 
 -432.17475m  940.6783n  699.9997m 
 -432.07475m  946.1512n  699.9997m 
 -431.97475m  951.6564n  699.9997m 
 -431.87475m  957.1943n  699.9997m 
 -431.77475m  962.7649n  699.9997m 
 -431.67475m  968.3685n  699.9997m 
 -431.57475m  974.0052n  699.9997m 
 -431.47475m  979.6753n  699.9997m 
 -431.37475m  985.3789n  699.9997m 
 -431.27475m  991.1163n  699.9997m 
 -431.17475m  996.8876n  699.9997m 
 -431.07475m    1.0027u  699.9997m 
 -430.97475m    1.0085u  699.9997m 
 -430.87475m    1.0144u  699.9997m 
 -430.77475m    1.0203u  699.9997m 
 -430.67475m    1.0263u  699.9997m 
 -430.57475m    1.0322u  699.9997m 
 -430.47475m    1.0383u  699.9997m 
 -430.37475m    1.0443u  699.9997m 
 -430.27475m    1.0504u  699.9996m 
 -430.17475m    1.0565u  699.9996m 
 -430.07475m    1.0627u  699.9996m 
 -429.97475m    1.0689u  699.9996m 
 -429.87475m    1.0751u  699.9996m 
 -429.77475m    1.0814u  699.9996m 
 -429.67475m    1.0877u  699.9996m 
 -429.57475m    1.0940u  699.9996m 
 -429.47475m    1.1004u  699.9996m 
 -429.37475m    1.1068u  699.9996m 
 -429.27475m    1.1133u  699.9996m 
 -429.17475m    1.1198u  699.9996m 
 -429.07475m    1.1263u  699.9996m 
 -428.97475m    1.1329u  699.9996m 
 -428.87475m    1.1395u  699.9996m 
 -428.77475m    1.1461u  699.9996m 
 -428.67475m    1.1528u  699.9996m 
 -428.57475m    1.1596u  699.9996m 
 -428.47475m    1.1663u  699.9996m 
 -428.37475m    1.1731u  699.9996m 
 -428.27475m    1.1800u  699.9996m 
 -428.17475m    1.1869u  699.9996m 
 -428.07475m    1.1938u  699.9996m 
 -427.97475m    1.2008u  699.9996m 
 -427.87475m    1.2078u  699.9996m 
 -427.77475m    1.2148u  699.9996m 
 -427.67475m    1.2219u  699.9996m 
 -427.57475m    1.2291u  699.9996m 
 -427.47475m    1.2363u  699.9996m 
 -427.37475m    1.2435u  699.9996m 
 -427.27475m    1.2508u  699.9996m 
 -427.17475m    1.2581u  699.9996m 
 -427.07475m    1.2654u  699.9996m 
 -426.97475m    1.2728u  699.9996m 
 -426.87475m    1.2803u  699.9996m 
 -426.77475m    1.2877u  699.9996m 
 -426.67475m    1.2953u  699.9996m 
 -426.57475m    1.3028u  699.9996m 
 -426.47475m    1.3105u  699.9996m 
 -426.37475m    1.3181u  699.9996m 
 -426.27475m    1.3258u  699.9996m 
 -426.17475m    1.3336u  699.9996m 
 -426.07475m    1.3414u  699.9996m 
 -425.97475m    1.3493u  699.9996m 
 -425.87475m    1.3571u  699.9996m 
 -425.77475m    1.3651u  699.9996m 
 -425.67475m    1.3731u  699.9996m 
 -425.57475m    1.3811u  699.9996m 
 -425.47475m    1.3892u  699.9996m 
 -425.37475m    1.3973u  699.9996m 
 -425.27475m    1.4055u  699.9996m 
 -425.17475m    1.4137u  699.9996m 
 -425.07475m    1.4220u  699.9996m 
 -424.97475m    1.4303u  699.9996m 
 -424.87475m    1.4387u  699.9996m 
 -424.77475m    1.4472u  699.9996m 
 -424.67475m    1.4556u  699.9996m 
 -424.57475m    1.4642u  699.9996m 
 -424.47475m    1.4727u  699.9996m 
 -424.37475m    1.4814u  699.9996m 
 -424.27475m    1.4900u  699.9996m 
 -424.17475m    1.4988u  699.9995m 
 -424.07475m    1.5076u  699.9995m 
 -423.97475m    1.5164u  699.9995m 
 -423.87475m    1.5253u  699.9995m 
 -423.77475m    1.5342u  699.9995m 
 -423.67475m    1.5432u  699.9995m 
 -423.57475m    1.5523u  699.9995m 
 -423.47475m    1.5614u  699.9995m 
 -423.37475m    1.5705u  699.9995m 
 -423.27475m    1.5797u  699.9995m 
 -423.17475m    1.5890u  699.9995m 
 -423.07475m    1.5983u  699.9995m 
 -422.97475m    1.6077u  699.9995m 
 -422.87475m    1.6171u  699.9995m 
 -422.77475m    1.6266u  699.9995m 
 -422.67475m    1.6362u  699.9995m 
 -422.57475m    1.6458u  699.9995m 
 -422.47475m    1.6554u  699.9995m 
 -422.37475m    1.6651u  699.9995m 
 -422.27475m    1.6749u  699.9995m 
 -422.17475m    1.6848u  699.9995m 
 -422.07475m    1.6946u  699.9995m 
 -421.97475m    1.7046u  699.9995m 
 -421.87475m    1.7146u  699.9995m 
 -421.77475m    1.7247u  699.9995m 
 -421.67475m    1.7348u  699.9995m 
 -421.57475m    1.7450u  699.9995m 
 -421.47475m    1.7552u  699.9995m 
 -421.37475m    1.7656u  699.9995m 
 -421.27475m    1.7759u  699.9995m 
 -421.17475m    1.7864u  699.9995m 
 -421.07475m    1.7969u  699.9995m 
 -420.97475m    1.8074u  699.9995m 
 -420.87475m    1.8180u  699.9995m 
 -420.77475m    1.8287u  699.9995m 
 -420.67475m    1.8395u  699.9995m 
 -420.57475m    1.8503u  699.9995m 
 -420.47475m    1.8612u  699.9995m 
 -420.37475m    1.8721u  699.9995m 
 -420.27475m    1.8831u  699.9995m 
 -420.17475m    1.8942u  699.9995m 
 -420.07475m    1.9053u  699.9995m 
 -419.97475m    1.9165u  699.9995m 
 -419.87475m    1.9278u  699.9995m 
 -419.77475m    1.9391u  699.9995m 
 -419.67475m    1.9506u  699.9994m 
 -419.57475m    1.9620u  699.9994m 
 -419.47475m    1.9736u  699.9994m 
 -419.37475m    1.9852u  699.9994m 
 -419.27475m    1.9969u  699.9994m 
 -419.17475m    2.0086u  699.9994m 
 -419.07475m    2.0204u  699.9994m 
 -418.97475m    2.0323u  699.9994m 
 -418.87475m    2.0443u  699.9994m 
 -418.77475m    2.0563u  699.9994m 
 -418.67475m    2.0684u  699.9994m 
 -418.57475m    2.0806u  699.9994m 
 -418.47475m    2.0929u  699.9994m 
 -418.37475m    2.1052u  699.9994m 
 -418.27475m    2.1176u  699.9994m 
 -418.17475m    2.1301u  699.9994m 
 -418.07475m    2.1426u  699.9994m 
 -417.97475m    2.1552u  699.9994m 
 -417.87475m    2.1679u  699.9994m 
 -417.77475m    2.1807u  699.9994m 
 -417.67475m    2.1936u  699.9994m 
 -417.57475m    2.2065u  699.9994m 
 -417.47475m    2.2195u  699.9994m 
 -417.37475m    2.2326u  699.9994m 
 -417.27475m    2.2457u  699.9994m 
 -417.17475m    2.2590u  699.9994m 
 -417.07475m    2.2723u  699.9994m 
 -416.97475m    2.2857u  699.9994m 
 -416.87475m    2.2992u  699.9994m 
 -416.77475m    2.3127u  699.9994m 
 -416.67475m    2.3264u  699.9994m 
 -416.57475m    2.3401u  699.9994m 
 -416.47475m    2.3539u  699.9994m 
 -416.37475m    2.3678u  699.9994m 
 -416.27475m    2.3817u  699.9994m 
 -416.17475m    2.3958u  699.9994m 
 -416.07475m    2.4099u  699.9993m 
 -415.97475m    2.4242u  699.9993m 
 -415.87475m    2.4385u  699.9993m 
 -415.77475m    2.4529u  699.9993m 
 -415.67475m    2.4673u  699.9993m 
 -415.57475m    2.4819u  699.9993m 
 -415.47475m    2.4966u  699.9993m 
 -415.37475m    2.5113u  699.9993m 
 -415.27475m    2.5261u  699.9993m 
 -415.17475m    2.5410u  699.9993m 
 -415.07475m    2.5560u  699.9993m 
 -414.97475m    2.5711u  699.9993m 
 -414.87475m    2.5863u  699.9993m 
 -414.77475m    2.6016u  699.9993m 
 -414.67475m    2.6170u  699.9993m 
 -414.57475m    2.6324u  699.9993m 
 -414.47475m    2.6480u  699.9993m 
 -414.37475m    2.6636u  699.9993m 
 -414.27475m    2.6794u  699.9993m 
 -414.17475m    2.6952u  699.9993m 
 -414.07475m    2.7111u  699.9993m 
 -413.97475m    2.7272u  699.9993m 
 -413.87475m    2.7433u  699.9993m 
 -413.77475m    2.7595u  699.9993m 
 -413.67475m    2.7758u  699.9993m 
 -413.57475m    2.7922u  699.9993m 
 -413.47475m    2.8087u  699.9993m 
 -413.37475m    2.8253u  699.9993m 
 -413.27475m    2.8420u  699.9993m 
 -413.17475m    2.8589u  699.9993m 
 -413.07475m    2.8758u  699.9992m 
 -412.97475m    2.8928u  699.9992m 
 -412.87475m    2.9099u  699.9992m 
 -412.77475m    2.9271u  699.9992m 
 -412.67475m    2.9444u  699.9992m 
 -412.57475m    2.9619u  699.9992m 
 -412.47475m    2.9794u  699.9992m 
 -412.37475m    2.9970u  699.9992m 
 -412.27475m    3.0148u  699.9992m 
 -412.17475m    3.0326u  699.9992m 
 -412.07475m    3.0506u  699.9992m 
 -411.97475m    3.0686u  699.9992m 
 -411.87475m    3.0868u  699.9992m 
 -411.77475m    3.1051u  699.9992m 
 -411.67475m    3.1234u  699.9992m 
 -411.57475m    3.1419u  699.9992m 
 -411.47475m    3.1606u  699.9992m 
 -411.37475m    3.1793u  699.9992m 
 -411.27475m    3.1981u  699.9992m 
 -411.17475m    3.2171u  699.9992m 
 -411.07475m    3.2361u  699.9992m 
 -410.97475m    3.2553u  699.9992m 
 -410.87475m    3.2746u  699.9992m 
 -410.77475m    3.2940u  699.9992m 
 -410.67475m    3.3135u  699.9992m 
 -410.57475m    3.3331u  699.9991m 
 -410.47475m    3.3529u  699.9991m 
 -410.37475m    3.3728u  699.9991m 
 -410.27475m    3.3928u  699.9991m 
 -410.17475m    3.4129u  699.9991m 
 -410.07475m    3.4331u  699.9991m 
 -409.97475m    3.4535u  699.9991m 
 -409.87475m    3.4740u  699.9991m 
 -409.77475m    3.4946u  699.9991m 
 -409.67475m    3.5153u  699.9991m 
 -409.57475m    3.5361u  699.9991m 
 -409.47475m    3.5571u  699.9991m 
 -409.37475m    3.5782u  699.9991m 
 -409.27475m    3.5995u  699.9991m 
 -409.17475m    3.6208u  699.9991m 
 -409.07475m    3.6423u  699.9991m 
 -408.97475m    3.6639u  699.9991m 
 -408.87475m    3.6857u  699.9991m 
 -408.77475m    3.7075u  699.9991m 
 -408.67475m    3.7295u  699.9991m 
 -408.57475m    3.7517u  699.9991m 
 -408.47475m    3.7740u  699.9991m 
 -408.37475m    3.7964u  699.9990m 
 -408.27475m    3.8189u  699.9990m 
 -408.17475m    3.8416u  699.9990m 
 -408.07475m    3.8644u  699.9990m 
 -407.97475m    3.8874u  699.9990m 
 -407.87475m    3.9104u  699.9990m 
 -407.77475m    3.9337u  699.9990m 
 -407.67475m    3.9570u  699.9990m 
 -407.57475m    3.9806u  699.9990m 
 -407.47475m    4.0042u  699.9990m 
 -407.37475m    4.0280u  699.9990m 
 -407.27475m    4.0519u  699.9990m 
 -407.17475m    4.0760u  699.9990m 
 -407.07475m    4.1002u  699.9990m 
 -406.97475m    4.1246u  699.9990m 
 -406.87475m    4.1491u  699.9990m 
 -406.77475m    4.1738u  699.9990m 
 -406.67475m    4.1986u  699.9990m 
 -406.57475m    4.2236u  699.9990m 
 -406.47475m    4.2487u  699.9990m 
 -406.37475m    4.2740u  699.9989m 
 -406.27475m    4.2994u  699.9989m 
 -406.17475m    4.3250u  699.9989m 
 -406.07475m    4.3507u  699.9989m 
 -405.97475m    4.3766u  699.9989m 
 -405.87475m    4.4026u  699.9989m 
 -405.77475m    4.4288u  699.9989m 
 -405.67475m    4.4552u  699.9989m 
 -405.57475m    4.4817u  699.9989m 
 -405.47475m    4.5084u  699.9989m 
 -405.37475m    4.5352u  699.9989m 
 -405.27475m    4.5622u  699.9989m 
 -405.17475m    4.5893u  699.9989m 
 -405.07475m    4.6167u  699.9989m 
 -404.97475m    4.6441u  699.9989m 
 -404.87475m    4.6718u  699.9989m 
 -404.77475m    4.6996u  699.9989m 
 -404.67475m    4.7276u  699.9989m 
 -404.57475m    4.7558u  699.9988m 
 -404.47475m    4.7841u  699.9988m 
 -404.37475m    4.8126u  699.9988m 
 -404.27475m    4.8413u  699.9988m 
 -404.17475m    4.8701u  699.9988m 
 -404.07475m    4.8991u  699.9988m 
 -403.97475m    4.9283u  699.9988m 
 -403.87475m    4.9577u  699.9988m 
 -403.77475m    4.9872u  699.9988m 
 -403.67475m    5.0169u  699.9988m 
 -403.57475m    5.0468u  699.9988m 
 -403.47475m    5.0769u  699.9988m 
 -403.37475m    5.1072u  699.9988m 
 -403.27475m    5.1376u  699.9988m 
 -403.17475m    5.1683u  699.9988m 
 -403.07475m    5.1991u  699.9988m 
 -402.97475m    5.2301u  699.9987m 
 -402.87475m    5.2613u  699.9987m 
 -402.77475m    5.2927u  699.9987m 
 -402.67475m    5.3242u  699.9987m 
 -402.57475m    5.3560u  699.9987m 
 -402.47475m    5.3880u  699.9987m 
 -402.37475m    5.4201u  699.9987m 
 -402.27475m    5.4524u  699.9987m 
 -402.17475m    5.4850u  699.9987m 
 -402.07475m    5.5177u  699.9987m 
 -401.97475m    5.5506u  699.9987m 
 -401.87475m    5.5838u  699.9987m 
 -401.77475m    5.6171u  699.9987m 
 -401.67475m    5.6506u  699.9987m 
 -401.57475m    5.6844u  699.9986m 
 -401.47475m    5.7183u  699.9986m 
 -401.37475m    5.7525u  699.9986m 
 -401.27475m    5.7868u  699.9986m 
 -401.17475m    5.8214u  699.9986m 
 -401.07475m    5.8561u  699.9986m 
 -400.97475m    5.8911u  699.9986m 
 -400.87475m    5.9263u  699.9986m 
 -400.77475m    5.9617u  699.9986m 
 -400.67475m    5.9973u  699.9986m 
 -400.57475m    6.0332u  699.9986m 
 -400.47475m    6.0692u  699.9986m 
 -400.37475m    6.1055u  699.9986m 
 -400.27475m    6.1420u  699.9986m 
 -400.17475m    6.1787u  699.9985m 
 -400.07475m    6.2156u  699.9985m 
 -399.97475m    6.2528u  699.9985m 
 -399.87475m    6.2901u  699.9985m 
 -399.77475m    6.3278u  699.9985m 
 -399.67475m    6.3656u  699.9985m 
 -399.57475m    6.4036u  699.9985m 
 -399.47475m    6.4419u  699.9985m 
 -399.37475m    6.4805u  699.9985m 
 -399.27475m    6.5192u  699.9985m 
 -399.17475m    6.5582u  699.9985m 
 -399.07475m    6.5975u  699.9985m 
 -398.97475m    6.6369u  699.9984m 
 -398.87475m    6.6766u  699.9984m 
 -398.77475m    6.7166u  699.9984m 
 -398.67475m    6.7568u  699.9984m 
 -398.57475m    6.7972u  699.9984m 
 -398.47475m    6.8379u  699.9984m 
 -398.37475m    6.8788u  699.9984m 
 -398.27475m    6.9200u  699.9984m 
 -398.17475m    6.9614u  699.9984m 
 -398.07475m    7.0031u  699.9984m 
 -397.97475m    7.0450u  699.9984m 
 -397.87475m    7.0872u  699.9984m 
 -397.77475m    7.1297u  699.9983m 
 -397.67475m    7.1724u  699.9983m 
 -397.57475m    7.2153u  699.9983m 
 -397.47475m    7.2585u  699.9983m 
 -397.37475m    7.3020u  699.9983m 
 -397.27475m    7.3458u  699.9983m 
 -397.17475m    7.3898u  699.9983m 
 -397.07475m    7.4341u  699.9983m 
 -396.97475m    7.4786u  699.9983m 
 -396.87475m    7.5234u  699.9983m 
 -396.77475m    7.5685u  699.9983m 
 -396.67475m    7.6139u  699.9982m 
 -396.57475m    7.6595u  699.9982m 
 -396.47475m    7.7054u  699.9982m 
 -396.37475m    7.7516u  699.9982m 
 -396.27475m    7.7981u  699.9982m 
 -396.17475m    7.8449u  699.9982m 
 -396.07475m    7.8919u  699.9982m 
 -395.97475m    7.9392u  699.9982m 
 -395.87475m    7.9868u  699.9982m 
 -395.77475m    8.0348u  699.9982m 
 -395.67475m    8.0830u  699.9981m 
 -395.57475m    8.1314u  699.9981m 
 -395.47475m    8.1802u  699.9981m 
 -395.37475m    8.2293u  699.9981m 
 -395.27475m    8.2787u  699.9981m 
 -395.17475m    8.3284u  699.9981m 
 -395.07475m    8.3783u  699.9981m 
 -394.97475m    8.4286u  699.9981m 
 -394.87475m    8.4792u  699.9981m 
 -394.77475m    8.5301u  699.9981m 
 -394.67475m    8.5813u  699.9980m 
 -394.57475m    8.6329u  699.9980m 
 -394.47475m    8.6847u  699.9980m 
 -394.37475m    8.7368u  699.9980m 
 -394.27475m    8.7893u  699.9980m 
 -394.17475m    8.8421u  699.9980m 
 -394.07475m    8.8952u  699.9980m 
 -393.97475m    8.9486u  699.9980m 
 -393.87475m    9.0024u  699.9980m 
 -393.77475m    9.0565u  699.9979m 
 -393.67475m    9.1109u  699.9979m 
 -393.57475m    9.1656u  699.9979m 
 -393.47475m    9.2207u  699.9979m 
 -393.37475m    9.2761u  699.9979m 
 -393.27475m    9.3319u  699.9979m 
 -393.17475m    9.3880u  699.9979m 
 -393.07475m    9.4444u  699.9979m 
 -392.97475m    9.5012u  699.9979m 
 -392.87475m    9.5583u  699.9978m 
 -392.77475m    9.6158u  699.9978m 
 -392.67475m    9.6736u  699.9978m 
 -392.57475m    9.7318u  699.9978m 
 -392.47475m    9.7903u  699.9978m 
 -392.37475m    9.8492u  699.9978m 
 -392.27475m    9.9084u  699.9978m 
 -392.17475m    9.9680u  699.9978m 
 -392.07475m   10.0280u  699.9977m 
 -391.97475m   10.0883u  699.9977m 
 -391.87475m   10.1490u  699.9977m 
 -391.77475m   10.2101u  699.9977m 
 -391.67475m   10.2715u  699.9977m 
 -391.57475m   10.3334u  699.9977m 
 -391.47475m   10.3956u  699.9977m 
 -391.37475m   10.4581u  699.9977m 
 -391.27475m   10.5211u  699.9976m 
 -391.17475m   10.5844u  699.9976m 
 -391.07475m   10.6482u  699.9976m 
 -390.97475m   10.7123u  699.9976m 
 -390.87475m   10.7768u  699.9976m 
 -390.77475m   10.8417u  699.9976m 
 -390.67475m   10.9070u  699.9976m 
 -390.57475m   10.9727u  699.9975m 
 -390.47475m   11.0388u  699.9975m 
 -390.37475m   11.1053u  699.9975m 
 -390.27475m   11.1722u  699.9975m 
 -390.17475m   11.2395u  699.9975m 
 -390.07475m   11.3072u  699.9975m 
 -389.97475m   11.3754u  699.9975m 
 -389.87475m   11.4439u  699.9974m 
 -389.77475m   11.5129u  699.9974m 
 -389.67475m   11.5823u  699.9974m 
 -389.57475m   11.6521u  699.9974m 
 -389.47475m   11.7224u  699.9974m 
 -389.37475m   11.7930u  699.9974m 
 -389.27475m   11.8642u  699.9974m 
 -389.17475m   11.9357u  699.9973m 
 -389.07475m   12.0077u  699.9973m 
 -388.97475m   12.0801u  699.9973m 
 -388.87475m   12.1530u  699.9973m 
 -388.77475m   12.2263u  699.9973m 
 -388.67475m   12.3000u  699.9973m 
 -388.57475m   12.3742u  699.9973m 
 -388.47475m   12.4489u  699.9972m 
 -388.37475m   12.5240u  699.9972m 
 -388.27475m   12.5996u  699.9972m 
 -388.17475m   12.6756u  699.9972m 
 -388.07475m   12.7521u  699.9972m 
 -387.97475m   12.8291u  699.9972m 
 -387.87475m   12.9066u  699.9971m 
 -387.77475m   12.9845u  699.9971m 
 -387.67475m   13.0629u  699.9971m 
 -387.57475m   13.1417u  699.9971m 
 -387.47475m   13.2211u  699.9971m 
 -387.37475m   13.3009u  699.9971m 
 -387.27475m   13.3813u  699.9971m 
 -387.17475m   13.4621u  699.9970m 
 -387.07475m   13.5434u  699.9970m 
 -386.97475m   13.6252u  699.9970m 
 -386.87475m   13.7075u  699.9970m 
 -386.77475m   13.7904u  699.9970m 
 -386.67475m   13.8737u  699.9970m 
 -386.57475m   13.9575u  699.9969m 
 -386.47475m   14.0419u  699.9969m 
 -386.37475m   14.1267u  699.9969m 
 -386.27475m   14.2121u  699.9969m 
 -386.17475m   14.2980u  699.9969m 
 -386.07475m   14.3845u  699.9968m 
 -385.97475m   14.4714u  699.9968m 
 -385.87475m   14.5589u  699.9968m 
 -385.77475m   14.6470u  699.9968m 
 -385.67475m   14.7355u  699.9968m 
 -385.57475m   14.8247u  699.9968m 
 -385.47475m   14.9143u  699.9967m 
 -385.37475m   15.0045u  699.9967m 
 -385.27475m   15.0953u  699.9967m 
 -385.17475m   15.1866u  699.9967m 
 -385.07475m   15.2785u  699.9967m 
 -384.97475m   15.3710u  699.9966m 
 -384.87475m   15.4640u  699.9966m 
 -384.77475m   15.5576u  699.9966m 
 -384.67475m   15.6517u  699.9966m 
 -384.57475m   15.7465u  699.9966m 
 -384.47475m   15.8418u  699.9965m 
 -384.37475m   15.9377u  699.9965m 
 -384.27475m   16.0342u  699.9965m 
 -384.17475m   16.1312u  699.9965m 
 -384.07475m   16.2289u  699.9965m 
 -383.97475m   16.3272u  699.9965m 
 -383.87475m   16.4261u  699.9964m 
 -383.77475m   16.5256u  699.9964m 
 -383.67475m   16.6257u  699.9964m 
 -383.57475m   16.7264u  699.9964m 
 -383.47475m   16.8277u  699.9963m 
 -383.37475m   16.9297u  699.9963m 
 -383.27475m   17.0322u  699.9963m 
 -383.17475m   17.1354u  699.9963m 
 -383.07475m   17.2393u  699.9963m 
 -382.97475m   17.3438u  699.9962m 
 -382.87475m   17.4489u  699.9962m 
 -382.77475m   17.5547u  699.9962m 
 -382.67475m   17.6611u  699.9962m 
 -382.57475m   17.7681u  699.9962m 
 -382.47475m   17.8759u  699.9961m 
 -382.37475m   17.9843u  699.9961m 
 -382.27475m   18.0933u  699.9961m 
 -382.17475m   18.2030u  699.9961m 
 -382.07475m   18.3135u  699.9960m 
 -381.97475m   18.4245u  699.9960m 
 -381.87475m   18.5363u  699.9960m 
 -381.77475m   18.6487u  699.9960m 
 -381.67475m   18.7619u  699.9960m 
 -381.57475m   18.8757u  699.9959m 
 -381.47475m   18.9903u  699.9959m 
 -381.37475m   19.1055u  699.9959m 
 -381.27475m   19.2215u  699.9959m 
 -381.17475m   19.3381u  699.9958m 
 -381.07475m   19.4555u  699.9958m 
 -380.97475m   19.5736u  699.9958m 
 -380.87475m   19.6924u  699.9958m 
 -380.77475m   19.8120u  699.9957m 
 -380.67475m   19.9323u  699.9957m 
 -380.57475m   20.0533u  699.9957m 
 -380.47475m   20.1751u  699.9957m 
 -380.37475m   20.2976u  699.9956m 
 -380.27475m   20.4209u  699.9956m 
 -380.17475m   20.5450u  699.9956m 
 -380.07475m   20.6698u  699.9956m 
 -379.97475m   20.7954u  699.9955m 
 -379.87475m   20.9217u  699.9955m 
 -379.77475m   21.0488u  699.9955m 
 -379.67475m   21.1767u  699.9955m 
 -379.57475m   21.3054u  699.9954m 
 -379.47475m   21.4349u  699.9954m 
 -379.37475m   21.5652u  699.9954m 
 -379.27475m   21.6963u  699.9954m 
 -379.17475m   21.8282u  699.9953m 
 -379.07475m   21.9609u  699.9953m 
 -378.97475m   22.0944u  699.9953m 
 -378.87475m   22.2288u  699.9953m 
 -378.77475m   22.3640u  699.9952m 
 -378.67475m   22.5000u  699.9952m 
 -378.57475m   22.6368u  699.9952m 
 -378.47475m   22.7745u  699.9951m 
 -378.37475m   22.9131u  699.9951m 
 -378.27475m   23.0525u  699.9951m 
 -378.17475m   23.1927u  699.9951m 
 -378.07475m   23.3339u  699.9950m 
 -377.97475m   23.4758u  699.9950m 
 -377.87475m   23.6187u  699.9950m 
 -377.77475m   23.7625u  699.9949m 
 -377.67475m   23.9071u  699.9949m 
 -377.57475m   24.0526u  699.9949m 
 -377.47475m   24.1991u  699.9949m 
 -377.37475m   24.3464u  699.9948m 
 -377.27475m   24.4946u  699.9948m 
 -377.17475m   24.6438u  699.9948m 
 -377.07475m   24.7938u  699.9947m 
 -376.97475m   24.9448u  699.9947m 
 -376.87475m   25.0968u  699.9947m 
 -376.77475m   25.2496u  699.9946m 
 -376.67475m   25.4034u  699.9946m 
 -376.57475m   25.5582u  699.9946m 
 -376.47475m   25.7139u  699.9946m 
 -376.37475m   25.8706u  699.9945m 
 -376.27475m   26.0282u  699.9945m 
 -376.17475m   26.1869u  699.9945m 
 -376.07475m   26.3465u  699.9944m 
 -375.97475m   26.5070u  699.9944m 
 -375.87475m   26.6686u  699.9944m 
 -375.77475m   26.8312u  699.9943m 
 -375.67475m   26.9948u  699.9943m 
 -375.57475m   27.1594u  699.9943m 
 -375.47475m   27.3250u  699.9942m 
 -375.37475m   27.4916u  699.9942m 
 -375.27475m   27.6593u  699.9942m 
 -375.17475m   27.8280u  699.9941m 
 -375.07475m   27.9977u  699.9941m 
 -374.97475m   28.1685u  699.9941m 
 -374.87475m   28.3403u  699.9940m 
 -374.77475m   28.5132u  699.9940m 
 -374.67475m   28.6872u  699.9940m 
 -374.57475m   28.8622u  699.9939m 
 -374.47475m   29.0384u  699.9939m 
 -374.37475m   29.2156u  699.9939m 
 -374.27475m   29.3939u  699.9938m 
 -374.17475m   29.5733u  699.9938m 
 -374.07475m   29.7539u  699.9937m 
 -373.97475m   29.9355u  699.9937m 
 -373.87475m   30.1183u  699.9937m 
 -373.77475m   30.3022u  699.9936m 
 -373.67475m   30.4872u  699.9936m 
 -373.57475m   30.6734u  699.9936m 
 -373.47475m   30.8607u  699.9935m 
 -373.37475m   31.0492u  699.9935m 
 -373.27475m   31.2389u  699.9935m 
 -373.17475m   31.4297u  699.9934m 
 -373.07475m   31.6217u  699.9934m 
 -372.97475m   31.8149u  699.9933m 
 -372.87475m   32.0093u  699.9933m 
 -372.77475m   32.2049u  699.9933m 
 -372.67475m   32.4018u  699.9932m 
 -372.57475m   32.5998u  699.9932m 
 -372.47475m   32.7991u  699.9931m 
 -372.37475m   32.9995u  699.9931m 
 -372.27475m   33.2013u  699.9931m 
 -372.17475m   33.4043u  699.9930m 
 -372.07475m   33.6085u  699.9930m 
 -371.97475m   33.8140u  699.9929m 
 -371.87475m   34.0208u  699.9929m 
 -371.77475m   34.2289u  699.9929m 
 -371.67475m   34.4382u  699.9928m 
 -371.57475m   34.6489u  699.9928m 
 -371.47475m   34.8608u  699.9927m 
 -371.37475m   35.0741u  699.9927m 
 -371.27475m   35.2887u  699.9926m 
 -371.17475m   35.5046u  699.9926m 
 -371.07475m   35.7219u  699.9926m 
 -370.97475m   35.9405u  699.9925m 
 -370.87475m   36.1604u  699.9925m 
 -370.77475m   36.3818u  699.9924m 
 -370.67475m   36.6045u  699.9924m 
 -370.57475m   36.8285u  699.9923m 
 -370.47475m   37.0540u  699.9923m 
 -370.37475m   37.2809u  699.9923m 
 -370.27475m   37.5091u  699.9922m 
 -370.17475m   37.7388u  699.9922m 
 -370.07475m   37.9700u  699.9921m 
 -369.97475m   38.2025u  699.9921m 
 -369.87475m   38.4365u  699.9920m 
 -369.77475m   38.6719u  699.9920m 
 -369.67475m   38.9088u  699.9919m 
 -369.57475m   39.1472u  699.9919m 
 -369.47475m   39.3871u  699.9918m 
 -369.37475m   39.6284u  699.9918m 
 -369.27475m   39.8713u  699.9917m 
 -369.17475m   40.1156u  699.9917m 
 -369.07475m   40.3615u  699.9916m 
 -368.97475m   40.6089u  699.9916m 
 -368.87475m   40.8578u  699.9915m 
 -368.77475m   41.1083u  699.9915m 
 -368.67475m   41.3603u  699.9914m 
 -368.57475m   41.6139u  699.9914m 
 -368.47475m   41.8691u  699.9913m 
 -368.37475m   42.1259u  699.9913m 
 -368.27475m   42.3842u  699.9912m 
 -368.17475m   42.6442u  699.9912m 
 -368.07475m   42.9057u  699.9911m 
 -367.97475m   43.1689u  699.9911m 
 -367.87475m   43.4338u  699.9910m 
 -367.77475m   43.7003u  699.9910m 
 -367.67475m   43.9684u  699.9909m 
 -367.57475m   44.2382u  699.9909m 
 -367.47475m   44.5097u  699.9908m 
 -367.37475m   44.7828u  699.9908m 
 -367.27475m   45.0577u  699.9907m 
 -367.17475m   45.3343u  699.9907m 
 -367.07475m   45.6126u  699.9906m 
 -366.97475m   45.8926u  699.9906m 
 -366.87475m   46.1744u  699.9905m 
 -366.77475m   46.4579u  699.9904m 
 -366.67475m   46.7432u  699.9904m 
 -366.57475m   47.0302u  699.9903m 
 -366.47475m   47.3191u  699.9903m 
 -366.37475m   47.6097u  699.9902m 
 -366.27475m   47.9022u  699.9902m 
 -366.17475m   48.1964u  699.9901m 
 -366.07475m   48.4925u  699.9900m 
 -365.97475m   48.7905u  699.9900m 
 -365.87475m   49.0903u  699.9899m 
 -365.77475m   49.3919u  699.9899m 
 -365.67475m   49.6955u  699.9898m 
 -365.57475m   50.0009u  699.9897m 
 -365.47475m   50.3082u  699.9897m 
 -365.37475m   50.6175u  699.9896m 
 -365.27475m   50.9287u  699.9896m 
 -365.17475m   51.2418u  699.9895m 
 -365.07475m   51.5568u  699.9894m 
 -364.97475m   51.8738u  699.9894m 
 -364.87475m   52.1928u  699.9893m 
 -364.77475m   52.5138u  699.9893m 
 -364.67475m   52.8368u  699.9892m 
 -364.57475m   53.1618u  699.9891m 
 -364.47475m   53.4888u  699.9891m 
 -364.37475m   53.8179u  699.9890m 
 -364.27475m   54.1490u  699.9889m 
 -364.17475m   54.4821u  699.9889m 
 -364.07475m   54.8174u  699.9888m 
 -363.97475m   55.1547u  699.9887m 
 -363.87475m   55.4941u  699.9887m 
 -363.77475m   55.8357u  699.9886m 
 -363.67475m   56.1794u  699.9885m 
 -363.57475m   56.5252u  699.9885m 
 -363.47475m   56.8732u  699.9884m 
 -363.37475m   57.2233u  699.9883m 
 -363.27475m   57.5756u  699.9883m 
 -363.17475m   57.9302u  699.9882m 
 -363.07475m   58.2869u  699.9881m 
 -362.97475m   58.6459u  699.9881m 
 -362.87475m   59.0071u  699.9880m 
 -362.77475m   59.3705u  699.9879m 
 -362.67475m   59.7362u  699.9878m 
 -362.57475m   60.1042u  699.9878m 
 -362.47475m   60.4745u  699.9877m 
 -362.37475m   60.8471u  699.9876m 
 -362.27475m   61.2221u  699.9876m 
 -362.17475m   61.5994u  699.9875m 
 -362.07475m   61.9790u  699.9874m 
 -361.97475m   62.3610u  699.9873m 
 -361.87475m   62.7454u  699.9873m 
 -361.77475m   63.1321u  699.9872m 
 -361.67475m   63.5213u  699.9871m 
 -361.57475m   63.9129u  699.9870m 
 -361.47475m   64.3070u  699.9870m 
 -361.37475m   64.7035u  699.9869m 
 -361.27475m   65.1025u  699.9868m 
 -361.17475m   65.5040u  699.9867m 
 -361.07475m   65.9080u  699.9866m 
 -360.97475m   66.3146u  699.9866m 
 -360.87475m   66.7236u  699.9865m 
 -360.77475m   67.1352u  699.9864m 
 -360.67475m   67.5494u  699.9863m 
 -360.57475m   67.9662u  699.9862m 
 -360.47475m   68.3856u  699.9862m 
 -360.37475m   68.8076u  699.9861m 
 -360.27475m   69.2322u  699.9860m 
 -360.17475m   69.6595u  699.9859m 
 -360.07475m   70.0895u  699.9858m 
 -359.97475m   70.5221u  699.9857m 
 -359.87475m   70.9575u  699.9857m 
 -359.77475m   71.3955u  699.9856m 
 -359.67475m   71.8363u  699.9855m 
 -359.57475m   72.2799u  699.9854m 
 -359.47475m   72.7262u  699.9853m 
 -359.37475m   73.1754u  699.9852m 
 -359.27475m   73.6273u  699.9851m 
 -359.17475m   74.0821u  699.9851m 
 -359.07475m   74.5397u  699.9850m 
 -358.97475m   75.0001u  699.9849m 
 -358.87475m   75.4635u  699.9848m 
 -358.77475m   75.9297u  699.9847m 
 -358.67475m   76.3989u  699.9846m 
 -358.57475m   76.8710u  699.9845m 
 -358.47475m   77.3460u  699.9844m 
 -358.37475m   77.8240u  699.9843m 
 -358.27475m   78.3050u  699.9842m 
 -358.17475m   78.7890u  699.9841m 
 -358.07475m   79.2761u  699.9841m 
 -357.97475m   79.7662u  699.9840m 
 -357.87475m   80.2593u  699.9839m 
 -357.77475m   80.7556u  699.9838m 
 -357.67475m   81.2549u  699.9837m 
 -357.57475m   81.7574u  699.9836m 
 -357.47475m   82.2630u  699.9835m 
 -357.37475m   82.7718u  699.9834m 
 -357.27475m   83.2838u  699.9833m 
 -357.17475m   83.7989u  699.9832m 
 -357.07475m   84.3173u  699.9831m 
 -356.97475m   84.8390u  699.9830m 
 -356.87475m   85.3639u  699.9829m 
 -356.77475m   85.8921u  699.9828m 
 -356.67475m   86.4236u  699.9827m 
 -356.57475m   86.9584u  699.9826m 
 -356.47475m   87.4966u  699.9825m 
 -356.37475m   88.0381u  699.9824m 
 -356.27475m   88.5831u  699.9823m 
 -356.17475m   89.1314u  699.9821m 
 -356.07475m   89.6832u  699.9820m 
 -355.97475m   90.2385u  699.9819m 
 -355.87475m   90.7972u  699.9818m 
 -355.77475m   91.3594u  699.9817m 
 -355.67475m   91.9252u  699.9816m 
 -355.57475m   92.4945u  699.9815m 
 -355.47475m   93.0673u  699.9814m 
 -355.37475m   93.6438u  699.9813m 
 -355.27475m   94.2238u  699.9812m 
 -355.17475m   94.8075u  699.9811m 
 -355.07475m   95.3949u  699.9809m 
 -354.97475m   95.9859u  699.9808m 
 -354.87475m   96.5807u  699.9807m 
 -354.77475m   97.1791u  699.9806m 
 -354.67475m   97.7814u  699.9805m 
 -354.57475m   98.3873u  699.9804m 
 -354.47475m   98.9971u  699.9802m 
 -354.37475m   99.6108u  699.9801m 
 -354.27475m  100.2282u  699.9800m 
 -354.17475m  100.8496u  699.9799m 
 -354.07475m  101.4748u  699.9798m 
 -353.97475m  102.1039u  699.9797m 
 -353.87475m  102.7370u  699.9795m 
 -353.77475m  103.3741u  699.9794m 
 -353.67475m  104.0152u  699.9793m 
 -353.57475m  104.6603u  699.9792m 
 -353.47475m  105.3094u  699.9790m 
 -353.37475m  105.9626u  699.9789m 
 -353.27475m  106.6199u  699.9788m 
 -353.17475m  107.2813u  699.9787m 
 -353.07475m  107.9469u  699.9785m 
 -352.97475m  108.6167u  699.9784m 
 -352.87475m  109.2906u  699.9783m 
 -352.77475m  109.9688u  699.9781m 
 -352.67475m  110.6512u  699.9780m 
 -352.57475m  111.3380u  699.9779m 
 -352.47475m  112.0290u  699.9777m 
 -352.37475m  112.7244u  699.9776m 
 -352.27475m  113.4241u  699.9775m 
 -352.17475m  114.1282u  699.9773m 
 -352.07475m  114.8368u  699.9772m 
 -351.97475m  115.5498u  699.9771m 
 -351.87475m  116.2672u  699.9769m 
 -351.77475m  116.9892u  699.9768m 
 -351.67475m  117.7157u  699.9767m 
 -351.57475m  118.4468u  699.9765m 
 -351.47475m  119.1824u  699.9764m 
 -351.37475m  119.9227u  699.9762m 
 -351.27475m  120.6676u  699.9761m 
 -351.17475m  121.4172u  699.9760m 
 -351.07475m  122.1715u  699.9758m 
 -350.97475m  122.9306u  699.9757m 
 -350.87475m  123.6944u  699.9755m 
 -350.77475m  124.4630u  699.9754m 
 -350.67475m  125.2364u  699.9752m 
 -350.57475m  126.0147u  699.9751m 
 -350.47475m  126.7979u  699.9749m 
 -350.37475m  127.5860u  699.9748m 
 -350.27475m  128.3790u  699.9746m 
 -350.17475m  129.1771u  699.9745m 
 -350.07475m  129.9801u  699.9743m 
 -349.97475m  130.7882u  699.9742m 
 -349.87475m  131.6014u  699.9740m 
 -349.77475m  132.4197u  699.9739m 
 -349.67475m  133.2431u  699.9737m 
 -349.57475m  134.0717u  699.9735m 
 -349.47475m  134.9055u  699.9734m 
 -349.37475m  135.7445u  699.9732m 
 -349.27475m  136.5888u  699.9731m 
 -349.17475m  137.4385u  699.9729m 
 -349.07475m  138.2934u  699.9727m 
 -348.97475m  139.1538u  699.9726m 
 -348.87475m  140.0195u  699.9724m 
 -348.77475m  140.8907u  699.9722m 
 -348.67475m  141.7673u  699.9721m 
 -348.57475m  142.6495u  699.9719m 
 -348.47475m  143.5372u  699.9717m 
 -348.37475m  144.4305u  699.9716m 
 -348.27475m  145.3294u  699.9714m 
 -348.17475m  146.2340u  699.9712m 
 -348.07475m  147.1442u  699.9710m 
 -347.97475m  148.0602u  699.9709m 
 -347.87475m  148.9819u  699.9707m 
 -347.77475m  149.9094u  699.9705m 
 -347.67475m  150.8428u  699.9703m 
 -347.57475m  151.7820u  699.9702m 
 -347.47475m  152.7271u  699.9700m 
 -347.37475m  153.6782u  699.9698m 
 -347.27475m  154.6353u  699.9696m 
 -347.17475m  155.5983u  699.9694m 
 -347.07475m  156.5675u  699.9693m 
 -346.97475m  157.5427u  699.9691m 
 -346.87475m  158.5240u  699.9689m 
 -346.77475m  159.5116u  699.9687m 
 -346.67475m  160.5053u  699.9685m 
 -346.57475m  161.5053u  699.9683m 
 -346.47475m  162.5116u  699.9681m 
 -346.37475m  163.5242u  699.9679m 
 -346.27475m  164.5431u  699.9677m 
 -346.17475m  165.5685u  699.9675m 
 -346.07475m  166.6004u  699.9674m 
 -345.97475m  167.6387u  699.9672m 
 -345.87475m  168.6835u  699.9670m 
 -345.77475m  169.7350u  699.9668m 
 -345.67475m  170.7930u  699.9666m 
 -345.57475m  171.8577u  699.9664m 
 -345.47475m  172.9291u  699.9662m 
 -345.37475m  174.0072u  699.9659m 
 -345.27475m  175.0922u  699.9657m 
 -345.17475m  176.1839u  699.9655m 
 -345.07475m  177.2825u  699.9653m 
 -344.97475m  178.3880u  699.9651m 
 -344.87475m  179.5005u  699.9649m 
 -344.77475m  180.6200u  699.9647m 
 -344.67475m  181.7465u  699.9645m 
 -344.57475m  182.8802u  699.9643m 
 -344.47475m  184.0209u  699.9640m 
 -344.37475m  185.1688u  699.9638m 
 -344.27475m  186.3240u  699.9636m 
 -344.17475m  187.4864u  699.9634m 
 -344.07475m  188.6561u  699.9632m 
 -343.97475m  189.8332u  699.9629m 
 -343.87475m  191.0177u  699.9627m 
 -343.77475m  192.2097u  699.9625m 
 -343.67475m  193.4091u  699.9623m 
 -343.57475m  194.6161u  699.9620m 
 -343.47475m  195.8307u  699.9618m 
 -343.37475m  197.0529u  699.9616m 
 -343.27475m  198.2829u  699.9614m 
 -343.17475m  199.5205u  699.9611m 
 -343.07475m  200.7660u  699.9609m 
 -342.97475m  202.0193u  699.9606m 
 -342.87475m  203.2805u  699.9604m 
 -342.77475m  204.5496u  699.9602m 
 -342.67475m  205.8267u  699.9599m 
 -342.57475m  207.1119u  699.9597m 
 -342.47475m  208.4051u  699.9594m 
 -342.37475m  209.7065u  699.9592m 
 -342.27475m  211.0160u  699.9589m 
 -342.17475m  212.3338u  699.9587m 
 -342.07475m  213.6599u  699.9584m 
 -341.97475m  214.9944u  699.9582m 
 -341.87475m  216.3372u  699.9579m 
 -341.77475m  217.6885u  699.9577m 
 -341.67475m  219.0483u  699.9574m 
 -341.57475m  220.4167u  699.9572m 
 -341.47475m  221.7936u  699.9569m 
 -341.37475m  223.1792u  699.9567m 
 -341.27475m  224.5736u  699.9564m 
 -341.17475m  225.9767u  699.9561m 
 -341.07475m  227.3887u  699.9559m 
 -340.97475m  228.8095u  699.9556m 
 -340.87475m  230.2393u  699.9553m 
 -340.77475m  231.6781u  699.9550m 
 -340.67475m  233.1259u  699.9548m 
 -340.57475m  234.5829u  699.9545m 
 -340.47475m  236.0490u  699.9542m 
 -340.37475m  237.5243u  699.9539m 
 -340.27475m  239.0090u  699.9537m 
 -340.17475m  240.5029u  699.9534m 
 -340.07475m  242.0063u  699.9531m 
 -339.97475m  243.5191u  699.9528m 
 -339.87475m  245.0415u  699.9525m 
 -339.77475m  246.5734u  699.9522m 
 -339.67475m  248.1150u  699.9520m 
 -339.57475m  249.6662u  699.9517m 
 -339.47475m  251.2273u  699.9514m 
 -339.37475m  252.7981u  699.9511m 
 -339.27475m  254.3789u  699.9508m 
 -339.17475m  255.9696u  699.9505m 
 -339.07475m  257.5702u  699.9502m 
 -338.97475m  259.1810u  699.9499m 
 -338.87475m  260.8019u  699.9496m 
 -338.77475m  262.4330u  699.9493m 
 -338.67475m  264.0744u  699.9489m 
 -338.57475m  265.7260u  699.9486m 
 -338.47475m  267.3881u  699.9483m 
 -338.37475m  269.0606u  699.9480m 
 -338.27475m  270.7437u  699.9477m 
 -338.17475m  272.4373u  699.9474m 
 -338.07475m  274.1416u  699.9471m 
 -337.97475m  275.8566u  699.9467m 
 -337.87475m  277.5824u  699.9464m 
 -337.77475m  279.3191u  699.9461m 
 -337.67475m  281.0667u  699.9458m 
 -337.57475m  282.8252u  699.9454m 
 -337.47475m  284.5949u  699.9451m 
 -337.37475m  286.3756u  699.9448m 
 -337.27475m  288.1676u  699.9444m 
 -337.17475m  289.9708u  699.9441m 
 -337.07475m  291.7854u  699.9437m 
 -336.97475m  293.6114u  699.9434m 
 -336.87475m  295.4488u  699.9431m 
 -336.77475m  297.2979u  699.9427m 
 -336.67475m  299.1585u  699.9424m 
 -336.57475m  301.0309u  699.9420m 
 -336.47475m  302.9150u  699.9417m 
 -336.37475m  304.8109u  699.9413m 
 -336.27475m  306.7188u  699.9409m 
 -336.17475m  308.6387u  699.9406m 
 -336.07475m  310.5706u  699.9402m 
 -335.97475m  312.5147u  699.9398m 
 -335.87475m  314.4710u  699.9395m 
 -335.77475m  316.4396u  699.9391m 
 -335.67475m  318.4206u  699.9387m 
 -335.57475m  320.4140u  699.9384m 
 -335.47475m  322.4200u  699.9380m 
 -335.37475m  324.4386u  699.9376m 
 -335.27475m  326.4698u  699.9372m 
 -335.17475m  328.5138u  699.9368m 
 -335.07475m  330.5707u  699.9365m 
 -334.97475m  332.6405u  699.9361m 
 -334.87475m  334.7232u  699.9357m 
 -334.77475m  336.8191u  699.9353m 
 -334.67475m  338.9282u  699.9349m 
 -334.57475m  341.0504u  699.9345m 
 -334.47475m  343.1861u  699.9341m 
 -334.37475m  345.3351u  699.9337m 
 -334.27475m  347.4976u  699.9333m 
 -334.17475m  349.6737u  699.9329m 
 -334.07475m  351.8635u  699.9325m 
 -333.97475m  354.0670u  699.9321m 
 -333.87475m  356.2844u  699.9316m 
 -333.77475m  358.5157u  699.9312m 
 -333.67475m  360.7610u  699.9308m 
 -333.57475m  363.0204u  699.9304m 
 -333.47475m  365.2940u  699.9300m 
 -333.37475m  367.5818u  699.9295m 
 -333.27475m  369.8840u  699.9291m 
 -333.17475m  372.2007u  699.9287m 
 -333.07475m  374.5319u  699.9282m 
 -332.97475m  376.8777u  699.9278m 
 -332.87475m  379.2383u  699.9273m 
 -332.77475m  381.6136u  699.9269m 
 -332.67475m  384.0039u  699.9264m 
 -332.57475m  386.4092u  699.9260m 
 -332.47475m  388.8295u  699.9255m 
 -332.37475m  391.2651u  699.9251m 
 -332.27475m  393.7159u  699.9246m 
 -332.17475m  396.1821u  699.9242m 
 -332.07475m  398.6637u  699.9237m 
 -331.97475m  401.1610u  699.9232m 
 -331.87475m  403.6738u  699.9228m 
 -331.77475m  406.2025u  699.9223m 
 -331.67475m  408.7470u  699.9218m 
 -331.57475m  411.3074u  699.9213m 
 -331.47475m  413.8839u  699.9208m 
 -331.37475m  416.4765u  699.9204m 
 -331.27475m  419.0854u  699.9199m 
 -331.17475m  421.7107u  699.9194m 
 -331.07475m  424.3524u  699.9189m 
 -330.97475m  427.0106u  699.9184m 
 -330.87475m  429.6855u  699.9179m 
 -330.77475m  432.3772u  699.9174m 
 -330.67475m  435.0857u  699.9169m 
 -330.57475m  437.8112u  699.9164m 
 -330.47475m  440.5537u  699.9159m 
 -330.37475m  443.3134u  699.9153m 
 -330.27475m  446.0904u  699.9148m 
 -330.17475m  448.8848u  699.9143m 
 -330.07475m  451.6967u  699.9138m 
 -329.97475m  454.5262u  699.9132m 
 -329.87475m  457.3734u  699.9127m 
 -329.77475m  460.2385u  699.9122m 
 -329.67475m  463.1214u  699.9116m 
 -329.57475m  466.0224u  699.9111m 
 -329.47475m  468.9416u  699.9105m 
 -329.37475m  471.8790u  699.9100m 
 -329.27475m  474.8347u  699.9094m 
 -329.17475m  477.8090u  699.9089m 
 -329.07475m  480.8019u  699.9083m 
 -328.97475m  483.8135u  699.9078m 
 -328.87475m  486.8439u  699.9072m 
 -328.77475m  489.8933u  699.9066m 
 -328.67475m  492.9617u  699.9060m 
 -328.57475m  496.0493u  699.9055m 
 -328.47475m  499.1562u  699.9049m 
 -328.37475m  502.2825u  699.9043m 
 -328.27475m  505.4284u  699.9037m 
 -328.17475m  508.5939u  699.9031m 
 -328.07475m  511.7792u  699.9025m 
 -327.97475m  514.9843u  699.9019m 
 -327.87475m  518.2095u  699.9013m 
 -327.77475m  521.4549u  699.9007m 
 -327.67475m  524.7205u  699.9001m 
 -327.57475m  528.0065u  699.8995m 
 -327.47475m  531.3129u  699.8989m 
 -327.37475m  534.6401u  699.8982m 
 -327.27475m  537.9880u  699.8976m 
 -327.17475m  541.3568u  699.8970m 
 -327.07475m  544.7466u  699.8963m 
 -326.97475m  548.1575u  699.8957m 
 -326.87475m  551.5897u  699.8951m 
 -326.77475m  555.0434u  699.8944m 
 -326.67475m  558.5185u  699.8938m 
 -326.57475m  562.0153u  699.8931m 
 -326.47475m  565.5340u  699.8925m 
 -326.37475m  569.0745u  699.8918m 
 -326.27475m  572.6371u  699.8911m 
 -326.17475m  576.2219u  699.8904m 
 -326.07475m  579.8291u  699.8898m 
 -325.97475m  583.4587u  699.8891m 
 -325.87475m  587.1109u  699.8884m 
 -325.77475m  590.7859u  699.8877m 
 -325.67475m  594.4837u  699.8870m 
 -325.57475m  598.2046u  699.8863m 
 -325.47475m  601.9486u  699.8856m 
 -325.37475m  605.7160u  699.8849m 
 -325.27475m  609.5067u  699.8842m 
 -325.17475m  613.3211u  699.8835m 
 -325.07475m  617.1592u  699.8828m 
 -324.97475m  621.0211u  699.8821m 
 -324.87475m  624.9071u  699.8813m 
 -324.77475m  628.8172u  699.8806m 
 -324.67475m  632.7516u  699.8799m 
 -324.57475m  636.7105u  699.8791m 
 -324.47475m  640.6940u  699.8784m 
 -324.37475m  644.7022u  699.8776m 
 -324.27475m  648.7353u  699.8769m 
 -324.17475m  652.7935u  699.8761m 
 -324.07475m  656.8768u  699.8753m 
 -323.97475m  660.9856u  699.8746m 
 -323.87475m  665.1198u  699.8738m 
 -323.77475m  669.2797u  699.8730m 
 -323.67475m  673.4654u  699.8722m 
 -323.57475m  677.6770u  699.8714m 
 -323.47475m  681.9148u  699.8706m 
 -323.37475m  686.1789u  699.8698m 
 -323.27475m  690.4694u  699.8690m 
 -323.17475m  694.7865u  699.8682m 
 -323.07475m  699.1304u  699.8674m 
 -322.97475m  703.5012u  699.8666m 
 -322.87475m  707.8990u  699.8658m 
 -322.77475m  712.3241u  699.8649m 
 -322.67475m  716.7766u  699.8641m 
 -322.57475m  721.2567u  699.8632m 
 -322.47475m  725.7645u  699.8624m 
 -322.37475m  730.3002u  699.8615m 
 -322.27475m  734.8640u  699.8607m 
 -322.17475m  739.4560u  699.8598m 
 -322.07475m  744.0764u  699.8590m 
 -321.97475m  748.7254u  699.8581m 
 -321.87475m  753.4032u  699.8572m 
 -321.77475m  758.1098u  699.8563m 
 -321.67475m  762.8456u  699.8554m 
 -321.57475m  767.6106u  699.8545m 
 -321.47475m  772.4050u  699.8536m 
 -321.37475m  777.2290u  699.8527m 
 -321.27475m  782.0829u  699.8518m 
 -321.17475m  786.9667u  699.8509m 
 -321.07475m  791.8806u  699.8500m 
 -320.97475m  796.8249u  699.8490m 
 -320.87475m  801.7996u  699.8481m 
 -320.77475m  806.8051u  699.8472m 
 -320.67475m  811.8414u  699.8462m 
 -320.57475m  816.9087u  699.8453m 
 -320.47475m  822.0073u  699.8443m 
 -320.37475m  827.1373u  699.8433m 
 -320.27475m  832.2989u  699.8424m 
 -320.17475m  837.4923u  699.8414m 
 -320.07475m  842.7177u  699.8404m 
 -319.97475m  847.9752u  699.8394m 
 -319.87475m  853.2651u  699.8384m 
 -319.77475m  858.5875u  699.8374m 
 -319.67475m  863.9427u  699.8364m 
 -319.57475m  869.3308u  699.8354m 
 -319.47475m  874.7520u  699.8344m 
 -319.37475m  880.2066u  699.8333m 
 -319.27475m  885.6946u  699.8323m 
 -319.17475m  891.2164u  699.8312m 
 -319.07475m  896.7721u  699.8302m 
 -318.97475m  902.3619u  699.8291m 
 -318.87475m  907.9860u  699.8281m 
 -318.77475m  913.6446u  699.8270m 
 -318.67475m  919.3379u  699.8259m 
 -318.57475m  925.0662u  699.8249m 
 -318.47475m  930.8296u  699.8238m 
 -318.37475m  936.6283u  699.8227m 
 -318.27475m  942.4625u  699.8216m 
 -318.17475m  948.3325u  699.8205m 
 -318.07475m  954.2384u  699.8193m 
 -317.97475m  960.1804u  699.8182m 
 -317.87475m  966.1589u  699.8171m 
 -317.77475m  972.1739u  699.8160m 
 -317.67475m  978.2257u  699.8148m 
 -317.57475m  984.3146u  699.8137m 
 -317.47475m  990.4406u  699.8125m 
 -317.37475m  996.6041u  699.8113m 
 -317.27475m    1.0028m  699.8102m 
 -317.17475m    1.0090m  699.8090m 
 -317.07475m    1.0153m  699.8078m 
 -316.97475m    1.0216m  699.8066m 
 -316.87475m    1.0280m  699.8054m 
 -316.77475m    1.0344m  699.8042m 
 -316.67475m    1.0408m  699.8030m 
 -316.57475m    1.0473m  699.8017m 
 -316.47475m    1.0538m  699.8005m 
 -316.37475m    1.0603m  699.7992m 
 -316.27475m    1.0669m  699.7980m 
 -316.17475m    1.0736m  699.7967m 
 -316.07475m    1.0802m  699.7955m 
 -315.97475m    1.0869m  699.7942m 
 -315.87475m    1.0937m  699.7929m 
 -315.77475m    1.1005m  699.7916m 
 -315.67475m    1.1073m  699.7903m 
 -315.57475m    1.1142m  699.7890m 
 -315.47475m    1.1211m  699.7877m 
 -315.37475m    1.1281m  699.7864m 
 -315.27475m    1.1351m  699.7851m 
 -315.17475m    1.1421m  699.7837m 
 -315.07475m    1.1492m  699.7824m 
 -314.97475m    1.1563m  699.7810m 
 -314.87475m    1.1635m  699.7796m 
 -314.77475m    1.1707m  699.7783m 
 -314.67475m    1.1780m  699.7769m 
 -314.57475m    1.1853m  699.7755m 
 -314.47475m    1.1926m  699.7741m 
 -314.37475m    1.2000m  699.7727m 
 -314.27475m    1.2075m  699.7713m 
 -314.17475m    1.2150m  699.7698m 
 -314.07475m    1.2225m  699.7684m 
 -313.97475m    1.2301m  699.7670m 
 -313.87475m    1.2377m  699.7655m 
 -313.77475m    1.2453m  699.7640m 
 -313.67475m    1.2531m  699.7626m 
 -313.57475m    1.2608m  699.7611m 
 -313.47475m    1.2686m  699.7596m 
 -313.37475m    1.2765m  699.7581m 
 -313.27475m    1.2844m  699.7566m 
 -313.17475m    1.2923m  699.7551m 
 -313.07475m    1.3003m  699.7535m 
 -312.97475m    1.3083m  699.7520m 
 -312.87475m    1.3164m  699.7504m 
 -312.77475m    1.3246m  699.7489m 
 -312.67475m    1.3328m  699.7473m 
 -312.57475m    1.3410m  699.7457m 
 -312.47475m    1.3493m  699.7441m 
 -312.37475m    1.3576m  699.7425m 
 -312.27475m    1.3660m  699.7409m 
 -312.17475m    1.3744m  699.7393m 
 -312.07475m    1.3829m  699.7377m 
 -311.97475m    1.3915m  699.7360m 
 -311.87475m    1.4001m  699.7344m 
 -311.77475m    1.4087m  699.7327m 
 -311.67475m    1.4174m  699.7311m 
 -311.57475m    1.4261m  699.7294m 
 -311.47475m    1.4349m  699.7277m 
 -311.37475m    1.4438m  699.7260m 
 -311.27475m    1.4527m  699.7243m 
 -311.17475m    1.4616m  699.7225m 
 -311.07475m    1.4707m  699.7208m 
 -310.97475m    1.4797m  699.7191m 
 -310.87475m    1.4888m  699.7173m 
 -310.77475m    1.4980m  699.7155m 
 -310.67475m    1.5072m  699.7138m 
 -310.57475m    1.5165m  699.7120m 
 -310.47475m    1.5258m  699.7102m 
 -310.37475m    1.5352m  699.7083m 
 -310.27475m    1.5447m  699.7065m 
 -310.17475m    1.5542m  699.7047m 
 -310.07475m    1.5637m  699.7028m 
 -309.97475m    1.5734m  699.7010m 
 -309.87475m    1.5830m  699.6991m 
 -309.77475m    1.5928m  699.6972m 
 -309.67475m    1.6025m  699.6953m 
 -309.57475m    1.6124m  699.6934m 
 -309.47475m    1.6223m  699.6915m 
 -309.37475m    1.6323m  699.6896m 
 -309.27475m    1.6423m  699.6876m 
 -309.17475m    1.6524m  699.6857m 
 -309.07475m    1.6625m  699.6837m 
 -308.97475m    1.6727m  699.6817m 
 -308.87475m    1.6830m  699.6797m 
 -308.77475m    1.6933m  699.6777m 
 -308.67475m    1.7037m  699.6757m 
 -308.57475m    1.7141m  699.6737m 
 -308.47475m    1.7246m  699.6716m 
 -308.37475m    1.7352m  699.6696m 
 -308.27475m    1.7458m  699.6675m 
 -308.17475m    1.7565m  699.6654m 
 -308.07475m    1.7672m  699.6633m 
 -307.97475m    1.7781m  699.6612m 
 -307.87475m    1.7889m  699.6591m 
 -307.77475m    1.7999m  699.6569m 
 -307.67475m    1.8109m  699.6548m 
 -307.57475m    1.8220m  699.6526m 
 -307.47475m    1.8331m  699.6504m 
 -307.37475m    1.8443m  699.6482m 
 -307.27475m    1.8556m  699.6460m 
 -307.17475m    1.8669m  699.6438m 
 -307.07475m    1.8783m  699.6416m 
 -306.97475m    1.8898m  699.6393m 
 -306.87475m    1.9013m  699.6371m 
 -306.77475m    1.9129m  699.6348m 
 -306.67475m    1.9246m  699.6325m 
 -306.57475m    1.9363m  699.6302m 
 -306.47475m    1.9481m  699.6279m 
 -306.37475m    1.9600m  699.6255m 
 -306.27475m    1.9719m  699.6232m 
 -306.17475m    1.9839m  699.6208m 
 -306.07475m    1.9960m  699.6184m 
 -305.97475m    2.0082m  699.6161m 
 -305.87475m    2.0204m  699.6136m 
 -305.77475m    2.0327m  699.6112m 
 -305.67475m    2.0450m  699.6088m 
 -305.57475m    2.0575m  699.6063m 
 -305.47475m    2.0700m  699.6039m 
 -305.37475m    2.0826m  699.6014m 
 -305.27475m    2.0952m  699.5989m 
 -305.17475m    2.1079m  699.5963m 
 -305.07475m    2.1207m  699.5938m 
 -304.97475m    2.1336m  699.5913m 
 -304.87475m    2.1465m  699.5887m 
 -304.77475m    2.1596m  699.5861m 
 -304.67475m    2.1727m  699.5835m 
 -304.57475m    2.1858m  699.5809m 
 -304.47475m    2.1991m  699.5783m 
 -304.37475m    2.2124m  699.5756m 
 -304.27475m    2.2258m  699.5729m 
 -304.17475m    2.2393m  699.5703m 
 -304.07475m    2.2528m  699.5676m 
 -303.97475m    2.2664m  699.5648m 
 -303.87475m    2.2801m  699.5621m 
 -303.77475m    2.2939m  699.5594m 
 -303.67475m    2.3078m  699.5566m 
 -303.57475m    2.3217m  699.5538m 
 -303.47475m    2.3358m  699.5510m 
 -303.37475m    2.3499m  699.5482m 
 -303.27475m    2.3640m  699.5453m 
 -303.17475m    2.3783m  699.5425m 
 -303.07475m    2.3926m  699.5396m 
 -302.97475m    2.4071m  699.5367m 
 -302.87475m    2.4216m  699.5338m 
 -302.77475m    2.4362m  699.5309m 
 -302.67475m    2.4508m  699.5279m 
 -302.57475m    2.4656m  699.5250m 
 -302.47475m    2.4804m  699.5220m 
 -302.37475m    2.4953m  699.5190m 
 -302.27475m    2.5103m  699.5160m 
 -302.17475m    2.5254m  699.5129m 
 -302.07475m    2.5406m  699.5098m 
 -301.97475m    2.5559m  699.5068m 
 -301.87475m    2.5712m  699.5037m 
 -301.77475m    2.5866m  699.5005m 
 -301.67475m    2.6022m  699.4974m 
 -301.57475m    2.6178m  699.4942m 
 -301.47475m    2.6335m  699.4911m 
 -301.37475m    2.6492m  699.4879m 
 -301.27475m    2.6651m  699.4846m 
 -301.17475m    2.6811m  699.4814m 
 -301.07475m    2.6971m  699.4781m 
 -300.97475m    2.7132m  699.4749m 
 -300.87475m    2.7295m  699.4716m 
 -300.77475m    2.7458m  699.4682m 
 -300.67475m    2.7622m  699.4649m 
 -300.57475m    2.7787m  699.4615m 
 -300.47475m    2.7953m  699.4581m 
 -300.37475m    2.8120m  699.4547m 
 -300.27475m    2.8287m  699.4513m 
 -300.17475m    2.8456m  699.4479m 
 -300.07475m    2.8626m  699.4444m 
 -299.97475m    2.8796m  699.4409m 
 -299.87475m    2.8968m  699.4374m 
 -299.77475m    2.9140m  699.4338m 
 -299.67475m    2.9314m  699.4303m 
 -299.57475m    2.9488m  699.4267m 
 -299.47475m    2.9663m  699.4231m 
 -299.37475m    2.9839m  699.4195m 
 -299.27475m    3.0017m  699.4158m 
 -299.17475m    3.0195m  699.4121m 
 -299.07475m    3.0374m  699.4084m 
 -298.97475m    3.0554m  699.4047m 
 -298.87475m    3.0735m  699.4010m 
 -298.77475m    3.0917m  699.3972m 
 -298.67475m    3.1101m  699.3934m 
 -298.57475m    3.1285m  699.3896m 
 -298.47475m    3.1470m  699.3858m 
 -298.37475m    3.1656m  699.3819m 
 -298.27475m    3.1843m  699.3780m 
 -298.17475m    3.2031m  699.3741m 
 -298.07475m    3.2221m  699.3702m 
 -297.97475m    3.2411m  699.3662m 
 -297.87475m    3.2602m  699.3622m 
 -297.77475m    3.2794m  699.3582m 
 -297.67475m    3.2988m  699.3542m 
 -297.57475m    3.3182m  699.3501m 
 -297.47475m    3.3377m  699.3460m 
 -297.37475m    3.3574m  699.3419m 
 -297.27475m    3.3771m  699.3378m 
 -297.17475m    3.3970m  699.3336m 
 -297.07475m    3.4170m  699.3294m 
 -296.97475m    3.4370m  699.3252m 
 -296.87475m    3.4572m  699.3210m 
 -296.77475m    3.4775m  699.3167m 
 -296.67475m    3.4979m  699.3124m 
 -296.57475m    3.5184m  699.3081m 
 -296.47475m    3.5390m  699.3037m 
 -296.37475m    3.5597m  699.2993m 
 -296.27475m    3.5806m  699.2949m 
 -296.17475m    3.6015m  699.2905m 
 -296.07475m    3.6226m  699.2860m 
 -295.97475m    3.6437m  699.2816m 
 -295.87475m    3.6650m  699.2770m 
 -295.77475m    3.6864m  699.2725m 
 -295.67475m    3.7079m  699.2679m 
 -295.57475m    3.7295m  699.2633m 
 -295.47475m    3.7513m  699.2587m 
 -295.37475m    3.7731m  699.2540m 
 -295.27475m    3.7951m  699.2493m 
 -295.17475m    3.8172m  699.2446m 
 -295.07475m    3.8393m  699.2399m 
 -294.97475m    3.8617m  699.2351m 
 -294.87475m    3.8841m  699.2303m 
 -294.77475m    3.9066m  699.2254m 
 -294.67475m    3.9293m  699.2206m 
 -294.57475m    3.9521m  699.2157m 
 -294.47475m    3.9750m  699.2108m 
 -294.37475m    3.9980m  699.2058m 
 -294.27475m    4.0211m  699.2008m 
 -294.17475m    4.0444m  699.1958m 
 -294.07475m    4.0678m  699.1907m 
 -293.97475m    4.0913m  699.1856m 
 -293.87475m    4.1149m  699.1805m 
 -293.77475m    4.1386m  699.1754m 
 -293.67475m    4.1625m  699.1702m 
 -293.57475m    4.1865m  699.1650m 
 -293.47475m    4.2106m  699.1597m 
 -293.37475m    4.2348m  699.1545m 
 -293.27475m    4.2592m  699.1492m 
 -293.17475m    4.2837m  699.1438m 
 -293.07475m    4.3083m  699.1384m 
 -292.97475m    4.3330m  699.1330m 
 -292.87475m    4.3579m  699.1276m 
 -292.77475m    4.3829m  699.1221m 
 -292.67475m    4.4080m  699.1166m 
 -292.57475m    4.4332m  699.1111m 
 -292.47475m    4.4586m  699.1055m 
 -292.37475m    4.4841m  699.0999m 
 -292.27475m    4.5097m  699.0942m 
 -292.17475m    4.5355m  699.0885m 
 -292.07475m    4.5614m  699.0828m 
 -291.97475m    4.5874m  699.0770m 
 -291.87475m    4.6135m  699.0713m 
 -291.77475m    4.6398m  699.0654m 
 -291.67475m    4.6662m  699.0596m 
 -291.57475m    4.6928m  699.0537m 
 -291.47475m    4.7194m  699.0477m 
 -291.37475m    4.7462m  699.0418m 
 -291.27475m    4.7732m  699.0358m 
 -291.17475m    4.8003m  699.0297m 
 -291.07475m    4.8275m  699.0236m 
 -290.97475m    4.8548m  699.0175m 
 -290.87475m    4.8823m  699.0113m 
 -290.77475m    4.9099m  699.0051m 
 -290.67475m    4.9377m  698.9989m 
 -290.57475m    4.9656m  698.9926m 
 -290.47475m    4.9936m  698.9863m 
 -290.37475m    5.0218m  698.9800m 
 -290.27475m    5.0501m  698.9736m 
 -290.17475m    5.0785m  698.9671m 
 -290.07475m    5.1071m  698.9607m 
 -289.97475m    5.1359m  698.9542m 
 -289.87475m    5.1647m  698.9476m 
 -289.77475m    5.1937m  698.9410m 
 -289.67475m    5.2229m  698.9344m 
 -289.57475m    5.2522m  698.9277m 
 -289.47475m    5.2816m  698.9210m 
 -289.37475m    5.3112m  698.9143m 
 -289.27475m    5.3409m  698.9075m 
 -289.17475m    5.3708m  698.9006m 
 -289.07475m    5.4008m  698.8937m 
 -288.97475m    5.4309m  698.8868m 
 -288.87475m    5.4612m  698.8799m 
 -288.77475m    5.4917m  698.8728m 
 -288.67475m    5.5222m  698.8658m 
 -288.57475m    5.5530m  698.8587m 
 -288.47475m    5.5839m  698.8516m 
 -288.37475m    5.6149m  698.8444m 
 -288.27475m    5.6461m  698.8372m 
 -288.17475m    5.6774m  698.8299m 
 -288.07475m    5.7089m  698.8226m 
 -287.97475m    5.7405m  698.8152m 
 -287.87475m    5.7723m  698.8078m 
 -287.77475m    5.8042m  698.8004m 
 -287.67475m    5.8362m  698.7929m 
 -287.57475m    5.8685m  698.7853m 
 -287.47475m    5.9008m  698.7778m 
 -287.37475m    5.9334m  698.7701m 
 -287.27475m    5.9660m  698.7624m 
 -287.17475m    5.9989m  698.7547m 
 -287.07475m    6.0319m  698.7469m 
 -286.97475m    6.0650m  698.7391m 
 -286.87475m    6.0983m  698.7313m 
 -286.77475m    6.1317m  698.7233m 
 -286.67475m    6.1653m  698.7154m 
 -286.57475m    6.1991m  698.7074m 
 -286.47475m    6.2330m  698.6993m 
 -286.37475m    6.2671m  698.6912m 
 -286.27475m    6.3013m  698.6830m 
 -286.17475m    6.3357m  698.6748m 
 -286.07475m    6.3702m  698.6666m 
 -285.97475m    6.4049m  698.6583m 
 -285.87475m    6.4398m  698.6499m 
 -285.77475m    6.4748m  698.6415m 
 -285.67475m    6.5100m  698.6330m 
 -285.57475m    6.5453m  698.6245m 
 -285.47475m    6.5808m  698.6160m 
 -285.37475m    6.6165m  698.6074m 
 -285.27475m    6.6523m  698.5987m 
 -285.17475m    6.6883m  698.5900m 
 -285.07475m    6.7244m  698.5812m 
 -284.97475m    6.7607m  698.5724m 
 -284.87475m    6.7972m  698.5635m 
 -284.77475m    6.8338m  698.5546m 
 -284.67475m    6.8706m  698.5456m 
 -284.57475m    6.9076m  698.5366m 
 -284.47475m    6.9447m  698.5275m 
 -284.37475m    6.9820m  698.5183m 
 -284.27475m    7.0194m  698.5091m 
 -284.17475m    7.0571m  698.4999m 
 -284.07475m    7.0948m  698.4905m 
 -283.97475m    7.1328m  698.4812m 
 -283.87475m    7.1709m  698.4718m 
 -283.77475m    7.2092m  698.4623m 
 -283.67475m    7.2477m  698.4527m 
 -283.57475m    7.2863m  698.4431m 
 -283.47475m    7.3251m  698.4335m 
 -283.37475m    7.3640m  698.4238m 
 -283.27475m    7.4032m  698.4140m 
 -283.17475m    7.4425m  698.4042m 
 -283.07475m    7.4819m  698.3943m 
 -282.97475m    7.5216m  698.3844m 
 -282.87475m    7.5614m  698.3743m 
 -282.77475m    7.6014m  698.3643m 
 -282.67475m    7.6415m  698.3542m 
 -282.57475m    7.6818m  698.3440m 
 -282.47475m    7.7223m  698.3337m 
 -282.37475m    7.7630m  698.3234m 
 -282.27475m    7.8039m  698.3131m 
 -282.17475m    7.8449m  698.3026m 
 -282.07475m    7.8861m  698.2921m 
 -281.97475m    7.9274m  698.2816m 
 -281.87475m    7.9690m  698.2710m 
 -281.77475m    8.0107m  698.2603m 
 -281.67475m    8.0526m  698.2496m 
 -281.57475m    8.0946m  698.2388m 
 -281.47475m    8.1369m  698.2279m 
 -281.37475m    8.1793m  698.2170m 
 -281.27475m    8.2219m  698.2060m 
 -281.17475m    8.2647m  698.1949m 
 -281.07475m    8.3076m  698.1838m 
 -280.97475m    8.3508m  698.1726m 
 -280.87475m    8.3941m  698.1613m 
 -280.77475m    8.4376m  698.1500m 
 -280.67475m    8.4812m  698.1386m 
 -280.57475m    8.5251m  698.1272m 
 -280.47475m    8.5691m  698.1156m 
 -280.37475m    8.6133m  698.1041m 
 -280.27475m    8.6577m  698.0924m 
 -280.17475m    8.7023m  698.0807m 
 -280.07475m    8.7470m  698.0689m 
 -279.97475m    8.7919m  698.0570m 
 -279.87475m    8.8370m  698.0451m 
 -279.77475m    8.8823m  698.0331m 
 -279.67475m    8.9278m  698.0210m 
 -279.57475m    8.9735m  698.0089m 
 -279.47475m    9.0193m  697.9966m 
 -279.37475m    9.0653m  697.9844m 
 -279.27475m    9.1115m  697.9720m 
 -279.17475m    9.1579m  697.9596m 
 -279.07475m    9.2045m  697.9471m 
 -278.97475m    9.2513m  697.9345m 
 -278.87475m    9.2982m  697.9219m 
 -278.77475m    9.3454m  697.9091m 
 -278.67475m    9.3927m  697.8963m 
 -278.57475m    9.4402m  697.8835m 
 -278.47475m    9.4879m  697.8705m 
 -278.37475m    9.5357m  697.8575m 
 -278.27475m    9.5838m  697.8444m 
 -278.17475m    9.6320m  697.8313m 
 -278.07475m    9.6805m  697.8180m 
 -277.97475m    9.7291m  697.8047m 
 -277.87475m    9.7779m  697.7913m 
 -277.77475m    9.8269m  697.7778m 
 -277.67475m    9.8761m  697.7643m 
 -277.57475m    9.9255m  697.7507m 
 -277.47475m    9.9750m  697.7369m 
 -277.37475m   10.0248m  697.7232m 
 -277.27475m   10.0747m  697.7093m 
 -277.17475m   10.1248m  697.6954m 
 -277.07475m   10.1752m  697.6813m 
 -276.97475m   10.2257m  697.6672m 
 -276.87475m   10.2764m  697.6531m 
 -276.77475m   10.3273m  697.6388m 
 -276.67475m   10.3784m  697.6244m 
[...]
  453.22525m  699.9998m  281.5122n 
  453.32525m  699.9998m  279.9274n 
  453.42525m  699.9998m  278.3517n 
  453.52525m  699.9998m  276.7852n 
  453.62525m  699.9998m  275.2278n 
  453.72525m  699.9998m  273.6794n 
  453.82525m  699.9998m  272.1400n 
  453.92525m  699.9998m  270.6096n 
  454.02525m  699.9998m  269.0880n 
  454.12525m  699.9998m  267.5752n 
  454.22525m  699.9998m  266.0713n 
  454.32525m  699.9998m  264.5761n 
  454.42525m  699.9998m  263.0895n 
  454.52525m  699.9998m  261.6116n 
  454.62525m  699.9998m  260.1422n 
  454.72525m  699.9998m  258.6814n 
  454.82525m  699.9998m  257.2291n 
  454.92525m  699.9998m  255.7852n 
  455.02525m  699.9998m  254.3496n 
  455.12525m  699.9998m  252.9224n 
  455.22525m  699.9998m  251.5035n 
  455.32525m  699.9998m  250.0928n 
  455.42525m  699.9998m  248.6902n 
  455.52525m  699.9998m  247.2959n 
  455.62525m  699.9998m  245.9096n 
  455.72525m  699.9998m  244.5313n 
  455.82525m  699.9998m  243.1610n 
  455.92525m  699.9998m  241.7987n 
  456.02525m  699.9998m  240.4443n 
  456.12525m  699.9998m  239.0977n 
  456.22525m  699.9998m  237.7590n 
  456.32525m  699.9998m  236.4280n 
  456.42525m  699.9998m  235.1047n 
  456.52525m  699.9998m  233.7891n 
  456.62525m  699.9998m  232.4811n 
  456.72525m  699.9998m  231.1807n 
  456.82525m  699.9998m  229.8878n 
  456.92525m  699.9998m  228.6025n 
  457.02525m  699.9998m  227.3245n 
  457.12525m  699.9998m  226.0540n 
  457.22525m  699.9998m  224.7909n 
  457.32525m  699.9998m  223.5350n 
  457.42525m  699.9998m  222.2865n 
  457.52525m  699.9998m  221.0452n 
  457.62525m  699.9998m  219.8110n 
  457.72525m  699.9998m  218.5841n 
  457.82525m  699.9998m  217.3642n 
  457.92525m  699.9998m  216.1514n 
  458.02525m  699.9998m  214.9456n 
  458.12525m  699.9998m  213.7468n 
  458.22525m  699.9998m  212.5550n 
  458.32525m  699.9998m  211.3700n 
  458.42525m  699.9998m  210.1919n 
  458.52525m  699.9998m  209.0207n 
  458.62525m  699.9998m  207.8562n 
  458.72525m  699.9998m  206.6984n 
  458.82525m  699.9998m  205.5474n 
  458.92525m  699.9998m  204.4030n 
  459.02525m  699.9998m  203.2653n 
  459.12525m  699.9998m  202.1341n 
  459.22525m  699.9998m  201.0095n 
  459.32525m  699.9998m  199.8914n 
  459.42525m  699.9998m  198.7798n 
  459.52525m  699.9998m  197.6746n 
  459.62525m  699.9998m  196.5758n 
  459.72525m  699.9998m  195.4834n 
  459.82525m  699.9998m  194.3973n 
  459.92525m  699.9998m  193.3175n 
  460.02525m  699.9998m  192.2439n 
  460.12525m  699.9998m  191.1765n 
  460.22525m  699.9998m  190.1153n 
  460.32525m  699.9998m  189.0603n 
  460.42525m  699.9999m  188.0114n 
  460.52525m  699.9999m  186.9685n 
  460.62525m  699.9999m  185.9316n 
  460.72525m  699.9999m  184.9008n 
  460.82525m  699.9999m  183.8759n 
  460.92525m  699.9999m  182.8570n 
  461.02525m  699.9999m  181.8439n 
  461.12525m  699.9999m  180.8367n 
  461.22525m  699.9999m  179.8354n 
  461.32525m  699.9999m  178.8398n 
  461.42525m  699.9999m  177.8499n 
  461.52525m  699.9999m  176.8658n 
  461.62525m  699.9999m  175.8874n 
  461.72525m  699.9999m  174.9147n 
  461.82525m  699.9999m  173.9476n 
  461.92525m  699.9999m  172.9860n 
  462.02525m  699.9999m  172.0301n 
  462.12525m  699.9999m  171.0796n 
  462.22525m  699.9999m  170.1346n 
  462.32525m  699.9999m  169.1952n 
  462.42525m  699.9999m  168.2611n 
  462.52525m  699.9999m  167.3324n 
  462.62525m  699.9999m  166.4091n 
  462.72525m  699.9999m  165.4912n 
  462.82525m  699.9999m  164.5785n 
  462.92525m  699.9999m  163.6711n 
  463.02525m  699.9999m  162.7690n 
  463.12525m  699.9999m  161.8721n 
  463.22525m  699.9999m  160.9803n 
  463.32525m  699.9999m  160.0938n 
  463.42525m  699.9999m  159.2123n 
  463.52525m  699.9999m  158.3359n 
  463.62525m  699.9999m  157.4646n 
  463.72525m  699.9999m  156.5983n 
  463.82525m  699.9999m  155.7371n 
  463.92525m  699.9999m  154.8808n 
  464.02525m  699.9999m  154.0294n 
  464.12525m  699.9999m  153.1830n 
  464.22525m  699.9999m  152.3414n 
  464.32525m  699.9999m  151.5047n 
  464.42525m  699.9999m  150.6729n 
  464.52525m  699.9999m  149.8458n 
  464.62525m  699.9999m  149.0236n 
  464.72525m  699.9999m  148.2060n 
  464.82525m  699.9999m  147.3932n 
  464.92525m  699.9999m  146.5851n 
  465.02525m  699.9999m  145.7817n 
  465.12525m  699.9999m  144.9829n 
  465.22525m  699.9999m  144.1887n 
  465.32525m  699.9999m  143.3990n 
  465.42525m  699.9999m  142.6140n 
  465.52525m  699.9999m  141.8335n 
  465.62525m  699.9999m  141.0574n 
  465.72525m  699.9999m  140.2859n 
  465.82525m  699.9999m  139.5188n 
  465.92525m  699.9999m  138.7562n 
  466.02525m  699.9999m  137.9979n 
  466.12525m  699.9999m  137.2440n 
  466.22525m  699.9999m  136.4945n 
  466.32525m  699.9999m  135.7493n 
  466.42525m  699.9999m  135.0084n 
  466.52525m  699.9999m  134.2717n 
  466.62525m  699.9999m  133.5393n 
  466.72525m  699.9999m  132.8112n 
  466.82525m  699.9999m  132.0872n 
  466.92525m  699.9999m  131.3674n 
  467.02525m  699.9999m  130.6518n 
  467.12525m  699.9999m  129.9403n 
  467.22525m  699.9999m  129.2329n 
  467.32525m  699.9999m  128.5296n 
  467.42525m  699.9999m  127.8303n 
  467.52525m  699.9999m  127.1351n 
  467.62525m  699.9999m  126.4439n 
  467.72525m  699.9999m  125.7566n 
  467.82525m  699.9999m  125.0734n 
  467.92525m  699.9999m  124.3940n 
  468.02525m  699.9999m  123.7186n 
  468.12525m  699.9999m  123.0471n 
  468.22525m  699.9999m  122.3794n 
  468.32525m  699.9999m  121.7156n 
  468.42525m  699.9999m  121.0557n 
  468.52525m  699.9999m  120.3995n 
  468.62525m  699.9999m  119.7471n 
  468.72525m  699.9999m  119.0985n 
  468.82525m  699.9999m  118.4536n 
  468.92525m  699.9999m  117.8124n 
  469.02525m  699.9999m  117.1750n 
  469.12525m  699.9999m  116.5412n 
  469.22525m  699.9999m  115.9110n 
  469.32525m  699.9999m  115.2845n 
  469.42525m  699.9999m  114.6616n 
  469.52525m  699.9999m  114.0423n 
  469.62525m  699.9999m  113.4265n 
  469.72525m  699.9999m  112.8143n 
  469.82525m  699.9999m  112.2056n 
  469.92525m  699.9999m  111.6005n 
  470.02525m  699.9999m  110.9988n 
  470.12525m  699.9999m  110.4006n 
  470.22525m  699.9999m  109.8058n 
  470.32525m  699.9999m  109.2145n 
  470.42525m  699.9999m  108.6265n 
  470.52525m  699.9999m  108.0420n 
  470.62525m  699.9999m  107.4608n 
  470.72525m  699.9999m  106.8829n 
  470.82525m  699.9999m  106.3084n 
  470.92525m  699.9999m  105.7372n 
  471.02525m  699.9999m  105.1693n 
  471.12525m  699.9999m  104.6047n 
  471.22525m  699.9999m  104.0433n 
  471.32525m  699.9999m  103.4851n 
  471.42525m  699.9999m  102.9302n 
  471.52525m  699.9999m  102.3784n 
  471.62525m  699.9999m  101.8299n 
  471.72525m  699.9999m  101.2844n 
  471.82525m  699.9999m  100.7422n 
  471.92525m  699.9999m  100.2030n 
  472.02525m  699.9999m   99.6670n 
  472.12525m  699.9999m   99.1340n 
  472.22525m  699.9999m   98.6041n 
  472.32525m  699.9999m   98.0773n 
  472.42525m  699.9999m   97.5535n 
  472.52525m  699.9999m   97.0327n 
  472.62525m  699.9999m   96.5149n 
  472.72525m  699.9999m   96.0000n 
  472.82525m  699.9999m   95.4882n 
  472.92525m  699.9999m   94.9793n 
  473.02525m  699.9999m   94.4733n 
  473.12525m  699.9999m   93.9702n 
  473.22525m  699.9999m   93.4700n 
  473.32525m  699.9999m   92.9727n 
  473.42525m  699.9999m   92.4783n 
  473.52525m  699.9999m   91.9867n 
  473.62525m  699.9999m   91.4979n 
  473.72525m  699.9999m   91.0120n 
  473.82525m  699.9999m   90.5288n 
  473.92525m  699.9999m   90.0484n 
  474.02525m  699.9999m   89.5708n 
  474.12525m  699.9999m   89.0959n 
  474.22525m  699.9999m   88.6238n 
  474.32525m  699.9999m   88.1544n 
  474.42525m  699.9999m   87.6876n 
  474.52525m  699.9999m   87.2236n 
  474.62525m  699.9999m   86.7622n 
  474.72525m  699.9999m   86.3035n 
  474.82525m  699.9999m   85.8474n 
  474.92525m  699.9999m   85.3940n 
  475.02525m  699.9999m   84.9431n 
  475.12525m  699.9999m   84.4949n 
  475.22525m  699.9999m   84.0492n 
  475.32525m  699.9999m   83.6061n 
  475.42525m  699.9999m   83.1655n 
  475.52525m  699.9999m   82.7274n 
  475.62525m  699.9999m   82.2919n 
  475.72525m  699.9999m   81.8589n 
  475.82525m  699.9999m   81.4284n 
  475.92525m  699.9999m   81.0003n 
  476.02525m  699.9999m   80.5747n 
  476.12525m  699.9999m   80.1516n 
  476.22525m  699.9999m   79.7309n 
  476.32525m  699.9999m   79.3126n 
  476.42525m  699.9999m   78.8967n 
  476.52525m  699.9999m   78.4832n 
  476.62525m  699.9999m   78.0720n 
  476.72525m  699.9999m   77.6633n 
  476.82525m  699.9999m   77.2569n 
  476.92525m  699.9999m   76.8528n 
  477.02525m  699.9999m   76.4510n 
  477.12525m  699.9999m   76.0516n 
  477.22525m  699.9999m   75.6544n 
  477.32525m  699.9999m   75.2595n 
  477.42525m  699.9999m   74.8669n 
  477.52525m  699.9999m   74.4766n 
  477.62525m  699.9999m   74.0885n 
  477.72525m  699.9999m   73.7026n 
  477.82525m  699.9999m   73.3190n 
  477.92525m  699.9999m   72.9375n 
  478.02525m  699.9999m   72.5582n 
  478.12525m  699.9999m   72.1811n 
  478.22525m  699.9999m   71.8062n 
  478.32525m  699.9999m   71.4335n 
  478.42525m  699.9999m   71.0628n 
  478.52525m  699.9999m   70.6943n 
  478.62525m  699.9999m   70.3279n 
  478.72525m  699.9999m   69.9637n 
  478.82525m  699.9999m   69.6015n 
  478.92525m  699.9999m   69.2414n 
  479.02525m  699.9999m   68.8833n 
  479.12525m  699.9999m   68.5274n 
  479.22525m  699.9999m   68.1734n 
  479.32525m  699.9999m   67.8215n 
  479.42525m  699.9999m   67.4716n 
  479.52525m  699.9999m   67.1237n 
  479.62525m  699.9999m   66.7779n 
  479.72525m  699.9999m   66.4340n 
  479.82525m  699.9999m   66.0920n 
  479.92525m  699.9999m   65.7521n 
  480.02525m  699.9999m   65.4141n 
  480.12525m  699.9999m   65.0780n 
  480.22525m  699.9999m   64.7439n 
  480.32525m  699.9999m   64.4117n 
  480.42525m  699.9999m   64.0814n 
  480.52525m  699.9999m   63.7529n 
  480.62525m  699.9999m   63.4264n 
  480.72525m  699.9999m   63.1017n 
  480.82525m  699.9999m   62.7790n 
  480.92525m  699.9999m   62.4580n 
  481.02525m  699.9999m   62.1389n 
  481.12525m  699.9999m   61.8216n 
  481.22525m  699.9999m   61.5062n 
  481.32525m  699.9999m   61.1926n 
  481.42525m  699.9999m   60.8807n 
  481.52525m  699.9999m   60.5707n 
  481.62525m  699.9999m   60.2624n 
  481.72525m  699.9999m   59.9559n 
  481.82525m  699.9999m   59.6512n 
  481.92525m  699.9999m   59.3482n 
  482.02525m  699.9999m   59.0469n 
  482.12525m  699.9999m   58.7474n 
  482.22525m  699.9999m   58.4496n 
  482.32525m  699.9999m   58.1535n 
  482.42525m  699.9999m   57.8591n 
  482.52525m  699.9999m   57.5664n 
  482.62525m  699.9999m   57.2753n 
  482.72525m  699.9999m   56.9860n 
  482.82525m  699.9999m   56.6983n 
  482.92525m  699.9999m   56.4122n 
  483.02525m  699.9999m   56.1278n 
  483.12525m  699.9999m   55.8450n 
  483.22525m  699.9999m   55.5638n 
  483.32525m  699.9999m   55.2843n 
  483.42525m  699.9999m   55.0063n 
  483.52525m  699.9999m   54.7300n 
  483.62525m  699.9999m   54.4552n 
  483.72525m  699.9999m   54.1820n 
  483.82525m  699.9999m   53.9104n 
  483.92525m  699.9999m   53.6404n 
  484.02525m  699.9999m   53.3718n 
  484.12525m  699.9999m   53.1049n 
  484.22525m  699.9999m   52.8394n 
  484.32525m  699.9999m   52.5755n 
  484.42525m  699.9999m   52.3131n 
  484.52525m  699.9999m   52.0522n 
  484.62525m  699.9999m   51.7928n 
  484.72525m  699.9999m   51.5348n 
  484.82525m  699.9999m   51.2784n 
  484.92525m  699.9999m   51.0234n 
  485.02525m  699.9999m   50.7699n 
  485.12525m  699.9999m   50.5178n 
  485.22525m  699.9999m   50.2672n 
  485.32525m  699.9999m   50.0180n 
  485.42525m  699.9999m   49.7703n 
  485.52525m  699.9999m   49.5240n 
  485.62525m  699.9999m   49.2790n 
  485.72525m  699.9999m   49.0355n 
  485.82525m  699.9999m   48.7934n 
  485.92525m  699.9999m   48.5527n 
  486.02525m  699.9999m   48.3133n 
  486.12525m  699.9999m   48.0754n 
  486.22525m  699.9999m   47.8387n 
  486.32525m  699.9999m   47.6035n 
  486.42525m  699.9999m   47.3696n 
  486.52525m  699.9999m   47.1370n 
  486.62525m  699.9999m   46.9058n 
  486.72525m  699.9999m   46.6759n 
  486.82525m  699.9999m   46.4473n 
  486.92525m  699.9999m   46.2200n 
  487.02525m  699.9999m   45.9940n 
  487.12525m  699.9999m   45.7693n 
  487.22525m  699.9999m   45.5459n 
  487.32525m  699.9999m   45.3238n 
  487.42525m  699.9999m   45.1029n 
  487.52525m  699.9999m   44.8834n 
  487.62525m  699.9999m   44.6650n 
  487.72525m  699.9999m   44.4480n 
  487.82525m  699.9999m   44.2321n 
  487.92525m  699.9999m   44.0175n 
  488.02525m  699.9999m   43.8042n 
  488.12525m  699.9999m   43.5920n 
  488.22525m  699.9999m   43.3811n 
  488.32525m  699.9999m   43.1714n 
  488.42525m  699.9999m   42.9629n 
  488.52525m  699.9999m   42.7556n 
  488.62525m  699.9999m   42.5494n 
  488.72525m  699.9999m   42.3445n 
  488.82525m  699.9999m   42.1407n 
  488.92525m  699.9999m   41.9381n 
  489.02525m  699.9999m   41.7367n 
  489.12525m  699.9999m   41.5364n 
  489.22525m  699.9999m   41.3372n 
  489.32525m  699.9999m   41.1392n 
  489.42525m  699.9999m   40.9423n 
  489.52525m  699.9999m   40.7466n 
  489.62525m  699.9999m   40.5520n 
  489.72525m  699.9999m   40.3585n 
  489.82525m  699.9999m   40.1661n 
  489.92525m  699.9999m   39.9748n 
  490.02525m  699.9999m   39.7846n 
  490.12525m  699.9999m   39.5955n 
  490.22525m  699.9999m   39.4074n 
  490.32525m  699.9999m   39.2205n 
  490.42525m  699.9999m   39.0346n 
  490.52525m  699.9999m   38.8498n 
  490.62525m  699.9999m   38.6660n 
  490.72525m  699.9999m   38.4833n 
  490.82525m  699.9999m   38.3017n 
  490.92525m  699.9999m   38.1210n 
  491.02525m  699.9999m   37.9415n 
  491.12525m  699.9999m   37.7629n 
  491.22525m  699.9999m   37.5854n 
  491.32525m  699.9999m   37.4089n 
  491.42525m  699.9999m   37.2334n 
  491.52525m  699.9999m   37.0589n 
  491.62525m  699.9999m   36.8854n 
  491.72525m  699.9999m   36.7129n 
  491.82525m  699.9999m   36.5413n 
  491.92525m  699.9999m   36.3708n 
  492.02525m  699.9999m   36.2012n 
  492.12525m  699.9999m   36.0327n 
  492.22525m  699.9999m   35.8650n 
  492.32525m  699.9999m   35.6984n 
  492.42525m  699.9999m   35.5327n 
  492.52525m  699.9999m   35.3679n 
  492.62525m  699.9999m   35.2041n 
  492.72525m  699.9999m   35.0412n 
  492.82525m  699.9999m   34.8793n 
  492.92525m  699.9999m   34.7182n 
  493.02525m  699.9999m   34.5581n 
  493.12525m  699.9999m   34.3990n 
  493.22525m  699.9999m   34.2407n 
  493.32525m  699.9999m   34.0833n 
  493.42525m  699.9999m   33.9269n 
  493.52525m  699.9999m   33.7713n 
  493.62525m  699.9999m   33.6166n 
  493.72525m  699.9999m   33.4629n 
  493.82525m  699.9999m   33.3099n 
  493.92525m  699.9999m   33.1579n 
  494.02525m  699.9999m   33.0068n 
  494.12525m  699.9999m   32.8565n 
  494.22525m  699.9999m   32.7070n 
  494.32525m  699.9999m   32.5585n 
  494.42525m  699.9999m   32.4107n 
  494.52525m  699.9999m   32.2638n 
  494.62525m  699.9999m   32.1178n 
  494.72525m  699.9999m   31.9726n 
  494.82525m  699.9999m   31.8282n 
  494.92525m  699.9999m   31.6847n 
y
1****** HSPICE -- Q-2020.03-SP2-2 linux64 (Nov  1 2020) ******                  
 ******  
 .title ex1_1

 ****** operating point information tnom=  25.000 temp=  25.000 ******
 ****** operating point status is all       simulation time is     0.     
    node    =voltage      node    =voltage      node    =voltage

 +0:bl      = 700.0000m 0:blb     = 700.0000m 0:gl      = 369.3010m
 +0:gr      = 369.3010m 0:q       = 369.3010m 0:qb      = 369.3010m
 +0:u       =   0.      0:v1      = 522.2705m 0:v2      = 522.2705m
 +0:vdd     = 700.0000m 0:wl      =   0.     


 **** voltage sources

 subckt                                   
 element  0:vdd      0:vu       0:vwl     
  volts    700.0000m    0.         0.     
  current -998.3335n    0.       305.0210f
  power    698.8334n    0.         0.     

     total voltage source power dissipation=  698.8334n       watts



 **** voltage-controlled voltage sources


 subckt                                              
 element  0:eli      0:eri      0:ev1      0:ev2     
  volts    369.3010m  369.3010m  522.2705m  522.2705m
  current   16.1797f   16.1797f    0.         0.     





 **** mosfets


 subckt                                                                    
 element  0:mp_pu1   0:mp_pu2   0:mn_pd1   0:mn_pd2   0:mn_ax1   0:mn_ax2  
 model    0:pmos_sra 0:pmos_sra 0:nmos_sra 0:nmos_sra 0:nmos_sra 0:nmos_sra
 region   Subth      Subth      Subth      Subth      Cutoff     Cutoff    
  id      -499.1667n -499.1667n  499.1658n  499.1658n  938.2320a  938.2320a
  ibs        0.         0.         0.         0.         0.         0.     
  ibd        0.         0.         0.         0.         0.         0.     
  vgs     -330.6990m -330.6990m  369.3010m  369.3010m -369.3010m -369.3010m
  vds     -330.6990m -330.6990m  369.3010m  369.3010m  330.6990m  330.6990m
  vbs        0.         0.         0.         0.      -369.3010m -369.3010m
  vth     -334.7549m -334.7549m  408.4973m  408.4973m  408.7099m  408.7099m
  vdsat    -95.5225m  -95.5225m   79.1198m   79.1198m   70.6690m   70.6690m
  vod        4.0559m    4.0559m  -39.1963m  -39.1963m -778.0109m -778.0109m
  beta       1.6413m    1.6413m    2.1736m    2.1736m    2.1736m    2.1736m
  gam eff    0.         0.         0.         0.         0.         0.     
  gm        12.9906u   12.9906u   15.3997u   15.3997u  8.590e-21  8.590e-21
  gds      301.4599n  301.4599n  239.6257n  239.6257n  228.2535a  228.2535a
  gmb        4.7534p    4.7534p    5.0811p    5.0811p  8.443e-21  8.443e-21
  cdtot     10.1750a   10.1750a   10.2205a   10.2205a   10.2225a   10.2225a
  cgtot     31.2784a   31.2784a   26.1428a   26.1428a   20.4450a   20.4450a
  cstot     17.2863a   17.2863a   14.0661a   14.0661a   10.2225a   10.2225a
  cbtot      0.         0.         0.         0.         0.         0.     
  cgs       21.2138a   21.2138a   15.9421a   15.9421a   10.2225a   10.2225a
  cgd       10.0646a   10.0646a   10.2007a   10.2007a   10.2225a   10.2225a




          ***** job concluded
 ******  
 .title ex1_1

 ****** job statistics summary tnom=  25.000 temp=  25.000 ******
  
 ******  Machine Information  ******
 CPU:
 model name	: AMD EPYC 7713 64-Core Processor
 cpu MHz	: 2000.000
  
 OS:
 Linux version 3.10.0-1160.88.1.el7.x86_64 (mockbuild@kbuilder.bsys.centos.org) (gcc version 4.8.5 20150623 (Red Hat 4.8.5-44) (GCC) ) #1 SMP Tue Mar 7 15:41:52 UTC 2023


  ******  HSPICE Threads Information  ******

  Command Line Threads Count :     1
  Available CPU Count        :   256
  Actual Threads Count       :     1


  ******  Circuit Statistics  ******
  # nodes       =      12 # elements   =      15
  # resistors   =       0 # capacitors =       2 # inductors   =       0
  # mutual_inds =       0 # vccs       =       0 # vcvs        =       4
  # cccs        =       0 # ccvs       =       0 # volt_srcs   =       3
  # curr_srcs   =       0 # diodes     =       0 # bjts        =       0
  # jfets       =       0 # mosfets    =       6 # U elements  =       0
  # T elements  =       0 # W elements =       0 # B elements  =       0
  # S elements  =       0 # P elements =       0 # va device   =       0
  # vector_srcs =       0 # N elements =       0


  ******  Runtime Statistics (seconds)  ******

  analysis           time    # points   tot. iter  conv.iter
  op point           0.01           1           7
  dc sweep           0.74        9900       29704
  readin             0.01
  errchk             0.00
  setup              0.00
  output             0.00


           peak memory used        400.88 megabytes
           total cpu time            0.81 seconds
           total elapsed time        1.04 seconds
           job started at     22:57:37 03/18/2025
           job ended   at     22:57:38 03/18/2025
           job total runtime         1.04 seconds


 lic: Release hspice token(s) 
 lic: total license checkout elapse time:        0.22(s)
